
  EPA STORM WATER MANAGEMENT MODEL - VERSION 5.1 (Build 5.1.012)
  --------------------------------------------------------------

  TEST5 
  UPSTREAM OFFSETS EXAMPLE 
  
  
  *********************************************************
  NOTE: The summary statistics displayed in this report are
  based on results found at every computational time step,  
  not just on results from each reporting time step.
  *********************************************************
  
  ****************
  Analysis Options
  ****************
  Flow Units ............... CFS
  Process Models:
    Rainfall/Runoff ........ NO
    RDII ................... NO
    Snowmelt ............... NO
    Groundwater ............ NO
    Flow Routing ........... YES
    Ponding Allowed ........ NO
    Water Quality .......... NO
  Flow Routing Method ...... DYNWAVE
  Starting Date ............ 02/22/2002 00:00:00
  Ending Date .............. 02/22/2002 12:00:00
  Antecedent Dry Days ...... 0.0
  Report Time Step ......... 00:01:00
  Routing Time Step ........ 5.00 sec
  Variable Time Step ....... NO
  Maximum Trials ........... 8
  Number of Threads ........ 1
  Head Tolerance ........... 0.005000 ft
  
  
  **************************        Volume        Volume
  Flow Routing Continuity        acre-feet      10^6 gal
  **************************     ---------     ---------
  Dry Weather Inflow .......         0.000         0.000
  Wet Weather Inflow .......         0.000         0.000
  Groundwater Inflow .......         0.000         0.000
  RDII Inflow ..............         0.000         0.000
  External Inflow ..........        19.627         6.396
  External Outflow .........        19.511         6.358
  Flooding Loss ............         0.000         0.000
  Evaporation Loss .........         0.000         0.000
  Exfiltration Loss ........         0.000         0.000
  Initial Stored Volume ....         0.000         0.000
  Final Stored Volume ......         0.120         0.039
  Continuity Error (%) .....        -0.019
  
  
  ********************************
  Highest Flow Instability Indexes
  ********************************
  All links are stable.
  
  
  *************************
  Routing Time Step Summary
  *************************
  Minimum Time Step           :     5.00 sec
  Average Time Step           :     5.00 sec
  Maximum Time Step           :     5.00 sec
  Percent in Steady State     :     0.00
  Average Iterations per Step :     2.01
  Percent Not Converging      :     0.01
  
  
  ******************
  Node Depth Summary
  ******************
  
  ---------------------------------------------------------------------------------
                                 Average  Maximum  Maximum  Time of Max    Reported
                                   Depth    Depth      HGL   Occurrence   Max Depth
  Node                 Type         Feet     Feet     Feet  days hr:min        Feet
  ---------------------------------------------------------------------------------
  0                    JUNCTION     3.66     4.00    14.00     0  08:00        4.00
  1                    JUNCTION     3.65     4.00    14.00     0  08:00        4.00
  2                    JUNCTION     3.63     4.00    14.00     0  08:00        4.00
  3                    JUNCTION     3.62     4.00    14.00     0  08:00        4.00
  4                    JUNCTION     3.61     4.00    14.00     0  08:00        4.00
  5                    JUNCTION     3.61     4.00    14.00     0  08:00        4.00
  6                    JUNCTION     3.60     4.00    14.00     0  08:00        4.00
  7                    JUNCTION     3.59     4.00    14.00     0  08:00        4.00
  8                    JUNCTION     3.59     4.00    14.00     0  08:00        4.00
  9                    JUNCTION     3.60     4.11    14.11     0  08:18        4.11
  10                   OUTFALL      0.65     1.00    11.00     0  08:00        1.00
  
  
  *******************
  Node Inflow Summary
  *******************
  
  -------------------------------------------------------------------------------------------------
                                  Maximum  Maximum                  Lateral       Total        Flow
                                  Lateral    Total  Time of Max      Inflow      Inflow     Balance
                                   Inflow   Inflow   Occurrence      Volume      Volume       Error
  Node                 Type           CFS      CFS  days hr:min    10^6 gal    10^6 gal     Percent
  -------------------------------------------------------------------------------------------------
  0                    JUNCTION     40.00    40.00     0  08:00         6.4         6.4       0.004
  1                    JUNCTION      0.00    40.04     0  08:00           0         6.4       0.063
  2                    JUNCTION      0.00    40.07     0  08:00           0        6.39       0.064
  3                    JUNCTION      0.00    40.09     0  08:00           0        6.39       0.065
  4                    JUNCTION      0.00    40.12     0  08:00           0        6.38       0.065
  5                    JUNCTION      0.00    40.14     0  08:00           0        6.38       0.066
  6                    JUNCTION      0.00    40.16     0  08:00           0        6.37       0.066
  7                    JUNCTION      0.00    40.18     0  08:00           0        6.37       0.066
  8                    JUNCTION      0.00    40.20     0  08:00           0        6.37       0.066
  9                    JUNCTION      0.00    40.22     0  08:00           0        6.36       0.069
  10                   OUTFALL       0.00    40.13     0  08:00           0        6.36       0.000
  
  
  **********************
  Node Surcharge Summary
  **********************
  
  No nodes were surcharged.
  
  
  *********************
  Node Flooding Summary
  *********************
  
  No nodes were flooded.
  
  
  ***********************
  Outfall Loading Summary
  ***********************
  
  -----------------------------------------------------------
                         Flow       Avg       Max       Total
                         Freq      Flow      Flow      Volume
  Outfall Node           Pcnt       CFS       CFS    10^6 gal
  -----------------------------------------------------------
  10                    97.55     20.17     40.13       6.358
  -----------------------------------------------------------
  System                97.55     20.17     40.13       6.358
  
  
  ********************
  Link Flow Summary
  ********************
  
  -----------------------------------------------------------------------------
                                 Maximum  Time of Max   Maximum    Max/    Max/
                                  |Flow|   Occurrence   |Veloc|    Full    Full
  Link                 Type          CFS  days hr:min    ft/sec    Flow   Depth
  -----------------------------------------------------------------------------
  1                    CONDUIT     40.04     0  08:00      7.99    0.14    0.62
  2                    CONDUIT     40.07     0  08:00      7.06    0.14    0.62
  3                    CONDUIT     40.09     0  08:00      8.99    0.14    0.62
  4                    CONDUIT     40.12     0  08:00     10.17    0.14    0.62
  5                    CONDUIT     40.14     0  08:00     10.37    0.14    0.62
  6                    CONDUIT     40.16     0  08:00     10.38    0.14    0.62
  7                    CONDUIT     40.18     0  08:00     11.05    0.14    0.62
  8                    CONDUIT     40.20     0  08:00     11.46    0.14    0.62
  9                    CONDUIT     40.22     0  08:00     11.27    0.14    0.62
  10                   CONDUIT     40.13     0  08:00     15.44    0.14    0.26
  
  
  ***************************
  Flow Classification Summary
  ***************************
  
  -------------------------------------------------------------------------------------
                      Adjusted    ---------- Fraction of Time in Flow Class ---------- 
                       /Actual         Up    Down  Sub   Sup   Up    Down  Norm  Inlet 
  Conduit               Length    Dry  Dry   Dry   Crit  Crit  Crit  Crit  Ltd   Ctrl  
  -------------------------------------------------------------------------------------
  1                       1.00   0.00  0.00  0.00  1.00  0.00  0.00  0.00  0.94  0.00
  2                       1.00   0.01  0.00  0.00  0.99  0.00  0.00  0.00  0.94  0.00
  3                       1.00   0.01  0.00  0.00  0.99  0.00  0.00  0.00  0.93  0.00
  4                       1.00   0.01  0.00  0.00  0.99  0.00  0.00  0.00  0.93  0.00
  5                       1.00   0.02  0.00  0.00  0.98  0.00  0.00  0.00  0.93  0.00
  6                       1.00   0.02  0.00  0.00  0.98  0.00  0.00  0.00  0.94  0.00
  7                       1.00   0.02  0.00  0.00  0.98  0.00  0.00  0.00  0.94  0.00
  8                       1.00   0.02  0.00  0.00  0.98  0.00  0.00  0.00  0.94  0.00
  9                       1.00   0.02  0.00  0.00  0.98  0.00  0.00  0.00  0.95  0.00
  10                      1.00   0.02  0.00  0.00  0.00  0.98  0.00  0.00  0.06  0.00
  
  
  *************************
  Conduit Surcharge Summary
  *************************
  
  ----------------------------------------------------------------------------
                                                           Hours        Hours 
                         --------- Hours Full --------   Above Full   Capacity
  Conduit                Both Ends  Upstream  Dnstream   Normal Flow   Limited
  ----------------------------------------------------------------------------
  9                           0.01      0.01      1.31      0.01         0.01
  

  Analysis begun on:  Fri Jan 12 14:35:15 2018
  Analysis ended on:  Fri Jan 12 14:35:15 2018
  Total elapsed time: < 1 sec