
  EPA STORM WATER MANAGEMENT MODEL - VERSION 5.1 (Build 5.1.012)
  --------------------------------------------------------------

   Example 8 of Extran Manual - 
   Various Conduit Types 
  
  
  *********************************************************
  NOTE: The summary statistics displayed in this report are
  based on results found at every computational time step,  
  not just on results from each reporting time step.
  *********************************************************
  
  ****************
  Analysis Options
  ****************
  Flow Units ............... CFS
  Process Models:
    Rainfall/Runoff ........ NO
    RDII ................... NO
    Snowmelt ............... NO
    Groundwater ............ NO
    Flow Routing ........... YES
    Ponding Allowed ........ NO
    Water Quality .......... NO
  Flow Routing Method ...... DYNWAVE
  Starting Date ............ 01/01/2002 00:00:00
  Ending Date .............. 01/01/2002 01:00:00
  Antecedent Dry Days ...... 0.0
  Report Time Step ......... 00:15:00
  Routing Time Step ........ 20.00 sec
  Variable Time Step ....... NO
  Maximum Trials ........... 8
  Number of Threads ........ 1
  Head Tolerance ........... 0.005000 ft
  
  
  **************************        Volume        Volume
  Flow Routing Continuity        acre-feet      10^6 gal
  **************************     ---------     ---------
  Dry Weather Inflow .......         1.648         0.537
  Wet Weather Inflow .......         0.000         0.000
  Groundwater Inflow .......         0.000         0.000
  RDII Inflow ..............         0.000         0.000
  External Inflow ..........         0.000         0.000
  External Outflow .........         1.263         0.411
  Flooding Loss ............         0.000         0.000
  Evaporation Loss .........         0.000         0.000
  Exfiltration Loss ........         0.000         0.000
  Initial Stored Volume ....         0.994         0.324
  Final Stored Volume ......         1.406         0.458
  Continuity Error (%) .....        -1.022
  
  
  *************************
  Highest Continuity Errors
  *************************
  Node 30006 (71.37%)
  Node 30081 (16.55%)
  Node 30082 (7.68%)
  
  
  ********************************
  Highest Flow Instability Indexes
  ********************************
  Link 10006 (4)
  
  
  *************************
  Routing Time Step Summary
  *************************
  Minimum Time Step           :    19.00 sec
  Average Time Step           :    19.99 sec
  Maximum Time Step           :    20.00 sec
  Percent in Steady State     :     0.00
  Average Iterations per Step :     2.00
  Percent Not Converging      :     0.00
  
  
  ******************
  Node Depth Summary
  ******************
  
  ---------------------------------------------------------------------------------
                                 Average  Maximum  Maximum  Time of Max    Reported
                                   Depth    Depth      HGL   Occurrence   Max Depth
  Node                 Type         Feet     Feet     Feet  days hr:min        Feet
  ---------------------------------------------------------------------------------
  30001                JUNCTION     0.00     0.00   802.00     0  00:00        0.00
  30002                JUNCTION     0.00     0.00   801.00     0  00:00        0.00
  30003                JUNCTION     0.00     0.00   800.50     0  00:00        0.00
  30004                JUNCTION     0.00     0.00   802.50     0  00:00        0.00
  30005                JUNCTION     0.00     0.00   801.50     0  00:00        0.00
  30006                JUNCTION     0.02     0.04   800.04     0  00:59        0.03
  30007                JUNCTION     0.00     0.00   803.00     0  00:00        0.00
  30081                JUNCTION     0.96     1.04   800.04     0  00:55        1.04
  30082                JUNCTION     1.19     1.29   799.29     0  00:59        1.26
  30083                OUTFALL      2.00     2.00   798.00     0  00:00        2.00
  
  
  *******************
  Node Inflow Summary
  *******************
  
  -------------------------------------------------------------------------------------------------
                                  Maximum  Maximum                  Lateral       Total        Flow
                                  Lateral    Total  Time of Max      Inflow      Inflow     Balance
                                   Inflow   Inflow   Occurrence      Volume      Volume       Error
  Node                 Type           CFS      CFS  days hr:min    10^6 gal    10^6 gal     Percent
  -------------------------------------------------------------------------------------------------
  30001                JUNCTION      0.00     0.00     0  00:00           0           0       0.000 gal
  30002                JUNCTION      0.00     0.00     0  00:00           0           0       0.000 gal
  30003                JUNCTION      0.00     0.00     0  00:00           0           0       0.000 gal
  30004                JUNCTION      0.00     0.00     0  00:00           0           0       0.000 gal
  30005                JUNCTION      0.00     0.00     0  00:00           0           0       0.000 gal
  30006                JUNCTION      0.00     0.25     0  00:27           0    0.000981     249.312
  30007                JUNCTION      0.00     0.00     0  00:00           0           0       0.000 gal
  30081                JUNCTION     20.00    20.08     0  00:42       0.538       0.537      19.834
  30082                JUNCTION      0.00    19.98     0  00:55           0       0.447       8.318
  30083                OUTFALL       0.00    19.07     0  00:59           0       0.413       0.000
  
  
  **********************
  Node Surcharge Summary
  **********************
  
  No nodes were surcharged.
  
  
  *********************
  Node Flooding Summary
  *********************
  
  No nodes were flooded.
  
  
  ***********************
  Outfall Loading Summary
  ***********************
  
  -----------------------------------------------------------
                         Flow       Avg       Max       Total
                         Freq      Flow      Flow      Volume
  Outfall Node           Pcnt       CFS       CFS    10^6 gal
  -----------------------------------------------------------
  30083                100.00     15.34     19.07       0.413
  -----------------------------------------------------------
  System               100.00     15.34     19.07       0.413
  
  
  ********************
  Link Flow Summary
  ********************
  
  -----------------------------------------------------------------------------
                                 Maximum  Time of Max   Maximum    Max/    Max/
                                  |Flow|   Occurrence   |Veloc|    Full    Full
  Link                 Type          CFS  days hr:min    ft/sec    Flow   Depth
  -----------------------------------------------------------------------------
  10001                CONDUIT      0.00     0  00:00      0.00    0.00    0.00
  10002                CONDUIT      0.00     0  00:00      0.00    0.00    0.00
  10003                CONDUIT      0.00     0  00:00      0.00    0.00    0.00
  10004                CONDUIT      0.00     0  00:00      0.00    0.00    0.00
  10005                CONDUIT      0.00     0  00:00      0.00    0.00    0.00
  10006                CONDUIT      0.25     0  00:27      0.06    0.00    0.11
  10007                CONDUIT      0.00     0  00:00      0.00    0.00    0.00
  10081                CHANNEL     19.98     0  00:55      0.65    0.03    0.23
  10082                CHANNEL     19.07     0  00:59      0.75    0.02    0.27
  
  
  ***************************
  Flow Classification Summary
  ***************************
  
  -------------------------------------------------------------------------------------
                      Adjusted    ---------- Fraction of Time in Flow Class ---------- 
                       /Actual         Up    Down  Sub   Sup   Up    Down  Norm  Inlet 
  Conduit               Length    Dry  Dry   Dry   Crit  Crit  Crit  Crit  Ltd   Ctrl  
  -------------------------------------------------------------------------------------
  10001                   1.00   1.00  0.00  0.00  0.00  0.00  0.00  0.00  0.00  0.00
  10002                   1.00   1.00  0.00  0.00  0.00  0.00  0.00  0.00  0.00  0.00
  10003                   1.00   0.39  0.61  0.00  0.00  0.00  0.00  0.00  0.00  0.00
  10004                   1.00   1.00  0.00  0.00  0.00  0.00  0.00  0.00  0.00  0.00
  10005                   1.00   1.00  0.00  0.00  0.00  0.00  0.00  0.00  0.00  0.00
  10006                   1.00   0.00  0.38  0.00  0.62  0.00  0.00  0.00  0.02  0.00
  10007                   1.00   1.00  0.00  0.00  0.00  0.00  0.00  0.00  0.00  0.00
  10081                   1.00   0.00  0.00  0.00  1.00  0.00  0.00  0.00  1.00  0.00
  10082                   1.00   0.00  0.00  0.00  1.00  0.00  0.00  0.00  1.00  0.00
  
  
  *************************
  Conduit Surcharge Summary
  *************************
  
  No conduits were surcharged.
  

  Analysis begun on:  Fri Mar 09 15:35:24 2018
  Analysis ended on:  Fri Mar 09 15:35:24 2018
  Total elapsed time: < 1 sec