
  EPA STORM WATER MANAGEMENT MODEL - VERSION 5.1 (Build 5.1.012)
  --------------------------------------------------------------

  Example 5 of Extran Manual - 
  Storage + Side Orifice 
  
  
  *********************************************************
  NOTE: The summary statistics displayed in this report are
  based on results found at every computational time step,  
  not just on results from each reporting time step.
  *********************************************************
  
  ****************
  Analysis Options
  ****************
  Flow Units ............... CFS
  Process Models:
    Rainfall/Runoff ........ NO
    RDII ................... NO
    Snowmelt ............... NO
    Groundwater ............ NO
    Flow Routing ........... YES
    Ponding Allowed ........ NO
    Water Quality .......... NO
  Flow Routing Method ...... DYNWAVE
  Starting Date ............ 01/01/2002 00:00:00
  Ending Date .............. 01/01/2002 08:00:00
  Antecedent Dry Days ...... 0.0
  Report Time Step ......... 00:15:00
  Routing Time Step ........ 20.00 sec
  Variable Time Step ....... NO
  Maximum Trials ........... 8
  Number of Threads ........ 1
  Head Tolerance ........... 0.005000 ft
  
  
  **************************        Volume        Volume
  Flow Routing Continuity        acre-feet      10^6 gal
  **************************     ---------     ---------
  Dry Weather Inflow .......         0.000         0.000
  Wet Weather Inflow .......         0.000         0.000
  Groundwater Inflow .......         0.000         0.000
  RDII Inflow ..............         0.000         0.000
  External Inflow ..........        33.470        10.907
  External Outflow .........        28.685         9.347
  Flooding Loss ............         4.705         1.533
  Evaporation Loss .........         0.000         0.000
  Exfiltration Loss ........         0.000         0.000
  Initial Stored Volume ....         0.000         0.000
  Final Stored Volume ......         0.153         0.050
  Continuity Error (%) .....        -0.217
  
  
  ********************************
  Highest Flow Instability Indexes
  ********************************
  All links are stable.
  
  
  *************************
  Routing Time Step Summary
  *************************
  Minimum Time Step           :    20.00 sec
  Average Time Step           :    20.00 sec
  Maximum Time Step           :    20.00 sec
  Percent in Steady State     :     0.00
  Average Iterations per Step :     2.61
  Percent Not Converging      :     7.85
  
  
  ******************
  Node Depth Summary
  ******************
  
  ---------------------------------------------------------------------------------
                                 Average  Maximum  Maximum  Time of Max    Reported
                                   Depth    Depth      HGL   Occurrence   Max Depth
  Node                 Type         Feet     Feet     Feet  days hr:min        Feet
  ---------------------------------------------------------------------------------
  80408                JUNCTION     4.30    12.79   137.39     0  00:42       12.75
  80608                JUNCTION     6.10    16.70   135.00     0  00:42       16.70
  81009                JUNCTION     1.11     2.85   131.05     0  00:32        2.84
  81309                JUNCTION     1.32     3.10   120.60     0  01:01        3.09
  82308                JUNCTION     5.60    14.67   126.97     0  00:48       14.33
  10309                JUNCTION     1.46     2.66   104.26     0  01:50        2.66
  15009                JUNCTION     1.13     2.45   113.95     0  01:35        2.45
  16009                JUNCTION     1.54     2.84   104.84     0  01:43        2.84
  16109                JUNCTION     1.35     2.71   105.51     0  01:50        2.71
  10208                OUTFALL      1.29     2.43    92.33     0  01:50        2.43
  82309                STORAGE      7.31    20.13   134.63     0  00:49       19.96
  
  
  *******************
  Node Inflow Summary
  *******************
  
  -------------------------------------------------------------------------------------------------
                                  Maximum  Maximum                  Lateral       Total        Flow
                                  Lateral    Total  Time of Max      Inflow      Inflow     Balance
                                   Inflow   Inflow   Occurrence      Volume      Volume       Error
  Node                 Type           CFS      CFS  days hr:min    10^6 gal    10^6 gal     Percent
  -------------------------------------------------------------------------------------------------
  80408                JUNCTION     45.00    45.00     0  00:15        3.64        3.64      -0.226
  80608                JUNCTION      0.00    45.60     0  00:17           0        3.64      -0.141
  81009                JUNCTION     50.00    50.00     0  00:15        4.04        4.04      -0.526
  81309                JUNCTION      0.00    53.82     0  00:40           0        4.06       0.325
  82308                JUNCTION      0.00    61.22     0  00:33           0        5.35      -0.215
  10309                JUNCTION      0.00   110.76     0  01:41           0        9.36       0.154
  15009                JUNCTION      0.00    50.98     0  01:13           0        4.05       0.065
  16009                JUNCTION      0.00   110.79     0  01:37           0        9.39       0.282
  16109                JUNCTION      0.00    60.37     0  01:50           0        5.36       0.302
  10208                OUTFALL       0.00   110.70     0  01:50           0        9.35       0.000
  82309                STORAGE      40.00    85.94     0  00:36        3.23        5.35      -0.010
  
  
  **********************
  Node Surcharge Summary
  **********************
  
  Surcharging occurs when water rises above the top of the highest conduit.
  ---------------------------------------------------------------------
                                               Max. Height   Min. Depth
                                   Hours       Above Crown    Below Rim
  Node                 Type      Surcharged           Feet         Feet
  ---------------------------------------------------------------------
  80408                JUNCTION        2.64          8.789        0.611
  80608                JUNCTION        2.94         12.700        0.000
  82308                JUNCTION        2.84          9.668       28.032
  
  
  *********************
  Node Flooding Summary
  *********************
  
  Flooding refers to all water that overflows a node, whether it ponds or not.
  --------------------------------------------------------------------------
                                                             Total   Maximum
                                 Maximum   Time of Max       Flood    Ponded
                        Hours       Rate    Occurrence      Volume     Depth
  Node                 Flooded       CFS   days hr:min    10^6 gal      Feet
  --------------------------------------------------------------------------
  80608                   2.39     27.03      0  00:52       1.533     0.000
  
  
  **********************
  Storage Volume Summary
  **********************
  
  --------------------------------------------------------------------------------------------------
                         Average     Avg  Evap Exfil       Maximum     Max    Time of Max    Maximum
                          Volume    Pcnt  Pcnt  Pcnt        Volume    Pcnt     Occurrence    Outflow
  Storage Unit          1000 ft3    Full  Loss  Loss      1000 ft3    Full    days hr:min        CFS
  --------------------------------------------------------------------------------------------------
  82309                    5.849      18     0     0        16.102      50       0  00:49      61.22
  
  
  ***********************
  Outfall Loading Summary
  ***********************
  
  -----------------------------------------------------------
                         Flow       Avg       Max       Total
                         Freq      Flow      Flow      Volume
  Outfall Node           Pcnt       CFS       CFS    10^6 gal
  -----------------------------------------------------------
  10208                 93.75     46.28    110.70       9.347
  -----------------------------------------------------------
  System                93.75     46.28    110.70       9.347
  
  
  ********************
  Link Flow Summary
  ********************
  
  -----------------------------------------------------------------------------
                                 Maximum  Time of Max   Maximum    Max/    Max/
                                  |Flow|   Occurrence   |Veloc|    Full    Full
  Link                 Type          CFS  days hr:min    ft/sec    Flow   Depth
  -----------------------------------------------------------------------------
  8040                 CONDUIT     45.60     0  00:17      7.25    0.62    1.00
  8060                 CONDUIT     45.94     0  00:36      3.66    1.33    1.00
  8100                 CONDUIT     53.82     0  00:40      6.60    0.69    0.64
  8130                 CONDUIT     50.98     0  01:13      5.50    0.72    0.61
  1030                 CONDUIT    110.70     0  01:50      5.70    0.04    0.28
  1570                 CONDUIT     50.45     0  01:35      4.47    0.41    0.48
  1600                 CONDUIT     60.38     0  02:00      4.91    0.41    0.46
  1630                 CONDUIT    110.76     0  01:41      5.76    0.05    0.31
  1602                 CONDUIT     60.37     0  01:50      3.76    1.39    0.77
  90010                ORIFICE     61.22     0  00:33                      1.00
  
  
  ***************************
  Flow Classification Summary
  ***************************
  
  -------------------------------------------------------------------------------------
                      Adjusted    ---------- Fraction of Time in Flow Class ---------- 
                       /Actual         Up    Down  Sub   Sup   Up    Down  Norm  Inlet 
  Conduit               Length    Dry  Dry   Dry   Crit  Crit  Crit  Crit  Ltd   Ctrl  
  -------------------------------------------------------------------------------------
  8040                    1.00   0.00  0.00  0.00  0.97  0.03  0.00  0.00  0.60  0.00
  8060                    1.00   0.00  0.00  0.00  0.43  0.00  0.00  0.56  0.01  0.00
  8100                    1.00   0.00  0.00  0.00  0.97  0.03  0.00  0.00  0.92  0.00
  8130                    1.00   0.00  0.00  0.00  0.97  0.02  0.00  0.00  0.59  0.00
  1030                    1.00   0.03  0.00  0.00  0.97  0.00  0.00  0.00  0.00  0.00
  1570                    1.00   0.00  0.00  0.00  1.00  0.00  0.00  0.00  0.93  0.00
  1600                    1.00   0.00  0.00  0.00  0.98  0.02  0.00  0.00  0.52  0.00
  1630                    1.00   0.00  0.00  0.00  0.96  0.03  0.00  0.00  0.42  0.00
  1602                    1.00   0.00  0.00  0.00  1.00  0.00  0.00  0.00  0.00  0.00
  
  
  *************************
  Conduit Surcharge Summary
  *************************
  
  ----------------------------------------------------------------------------
                                                           Hours        Hours 
                         --------- Hours Full --------   Above Full   Capacity
  Conduit                Both Ends  Upstream  Dnstream   Normal Flow   Limited
  ----------------------------------------------------------------------------
  8040                        2.64      2.64      2.93      0.01         0.01
  8060                        2.93      2.93      3.03      0.26         0.23
  1602                        0.01      2.84      0.01      2.85         0.01
  

  Analysis begun on:  Fri Mar 09 15:35:23 2018
  Analysis ended on:  Fri Mar 09 15:35:23 2018
  Total elapsed time: < 1 sec