
  EPA STORM WATER MANAGEMENT MODEL - VERSION 5.1 (Build 5.1.012)
  --------------------------------------------------------------

  TEST PROBLEM USER1 
  
  
  *************
  Element Count
  *************
  Number of rain gages ...... 1
  Number of subcatchments ... 58
  Number of nodes ........... 60
  Number of links ........... 59
  Number of pollutants ...... 0
  Number of land uses ....... 0
  
  
  ****************
  Raingage Summary
  ****************
                                                      Data       Recording
  Name                 Data Source                    Type       Interval 
  ------------------------------------------------------------------------
  GAGE1                RainSeries1                    VOLUME       5 min.
  
  
  ********************
  Subcatchment Summary
  ********************
  Name                       Area     Width   %Imperv    %Slope Rain Gage            Outlet              
  -----------------------------------------------------------------------------------------------------------
  c3y51                      0.76     54.30     70.00   34.3000 GAGE1                03y51               
  c2y48                      1.36     64.76     70.00   17.6000 GAGE1                02y48               
  c3y49                      1.66     83.00     70.00   35.5000 GAGE1                03y49               
  c4y48                      2.75    110.00     70.00    8.4000 GAGE1                04y48               
  c3y48                      2.95    134.09     70.00   51.8000 GAGE1                03y48               
  c2y47S                     2.30    115.00     70.00   35.5000 GAGE1                02y47S              
  c3y47                      0.67    134.00     70.00   44.0000 GAGE1                03y47               
  c3y46                      0.75     41.67     70.00   21.1000 GAGE1                03y46               
  c3y45                      3.12     80.00     70.00   24.6000 GAGE1                03y45               
  c1y46                      8.41    186.89     70.00   52.4000 GAGE1                01y46               
  c2y47N                     2.28    108.57     70.00   31.4000 GAGE1                02y47N              
  c2y46                      1.00     71.43     70.00   83.6000 GAGE1                02y46               
  c1y43S                     1.55    110.71     70.00   15.7000 GAGE1                01y43S              
  c1e43y44                   1.15    153.33     70.00   54.7000 GAGE1                01e43y44            
  c1y44                      0.13     52.00     70.00   68.0000 GAGE1                01y44               
  c2y44                      1.00     71.43     70.00   55.6000 GAGE1                02y44               
  c4y44S                     2.05    146.43     70.00  157.1000 GAGE1                04y44S              
  c3y44S                     4.60    102.22     70.00   36.9000 GAGE1                03y44S              
  c1y43N                     2.25     78.95     70.00   21.4000 GAGE1                01y43N              
  c2y43                      2.06    164.80     70.00   27.2000 GAGE1                02y43               
  c3y44N                     2.48     95.38     70.00   47.7000 GAGE1                03y44N              
  c4y44N                     2.12     88.33     70.00  108.3000 GAGE1                04y44N              
  c5y44                      4.00    114.29     70.00  118.6000 GAGE1                05y44               
  c5y43                      1.00     71.43     70.00   65.7000 GAGE1                05y43               
  c5y42                     10.00    194.17     70.00   56.7000 GAGE1                05y42               
  c5y41                      5.18    123.33     70.00  101.4000 GAGE1                05y41               
  c5y39                      4.78    119.50     70.00  100.3000 GAGE1                05y39               
  c5y38                      1.51    111.85     70.00   59.3000 GAGE1                05y38               
  c5y37                      2.04    163.20     70.00  200.8000 GAGE1                05y37               
  c1y40                      5.88    150.77     70.00   33.3000 GAGE1                01y40               
  c2y40                      3.12    141.82     70.00   31.8000 GAGE1                02y40               
  c2y39                      3.33    128.08     70.00   34.2000 GAGE1                02y39               
  c3y39                      1.81     48.92     70.00   36.8000 GAGE1                03y39               
  c3y38                      2.53     90.36     70.00   75.0000 GAGE1                03y38               
  c3y37                      4.75    113.10     70.00   76.4000 GAGE1                03y37               
  c4y37                      6.06    216.43     70.00  147.5000 GAGE1                04y37               
  c4y36                      1.89     67.50     70.00   91.4000 GAGE1                04y36               
  c5y36                      2.91    207.86     70.00  175.7000 GAGE1                05y36               
  c5y35                      5.50     79.14     70.00   91.2000 GAGE1                05y35               
  c5y34                      1.98     70.71     70.00   78.9000 GAGE1                05y34               
  c5y33                      2.56     91.43     70.00  114.3000 GAGE1                05y33               
  c2y34                      1.05     37.50     70.00  106.4000 GAGE1                02y34               
  c1y33                     11.73    170.00     70.00   62.0000 GAGE1                01y33               
  c2y33                      5.44    126.51     70.00  130.7000 GAGE1                02y33               
  c3y33                      3.30     77.65     70.00  101.4000 GAGE1                03y33               
  c2y532                     2.98    165.56     40.00  205.6000 GAGE1                02y532              
  c3y32                      3.25    127.45     40.00   80.8000 GAGE1                03y32               
  c4y32                      7.60    140.74     40.00  119.8000 GAGE1                04y32               
  c5y32                      2.65     94.64     40.00   94.6000 GAGE1                05y32               
  c2y35                      4.41    106.26     70.00   82.4000 GAGE1                02y35               
  c5yD77                     0.58     41.43     70.00   42.1000 GAGE1                05yD77              
  c5y46                      3.25    116.00     70.00   27.5000 GAGE1                05y46               
  c5y47                      2.88    117.50     70.00   22.4000 GAGE1                05y47               
  c5y48                      1.18     84.30     25.00   20.7000 GAGE1                05y48               
  c5e48y49                   1.20     75.00     70.00   11.9000 GAGE1                05e48y49            
  c5y49                      1.00     62.50     70.00   43.8000 GAGE1                05y49               
  c5y50                      2.56     93.10     70.00   25.5000 GAGE1                05y50               
  c5y51                      1.41    108.50     70.00   22.3000 GAGE1                05y51               
  
  
  ************
  Node Summary
  ************
                                           Invert      Max.    Ponded    External
  Name                 Type                 Elev.     Depth      Area    Inflow  
  -------------------------------------------------------------------------------
  01e43y44             JUNCTION             16.08      2.66       0.0
  01y33                JUNCTION              8.23      5.29       0.0
  01y40                JUNCTION             14.89      2.75       0.0
  01y43N               JUNCTION             16.88      1.57       0.0
  01y43S               JUNCTION             16.34      2.11       0.0
  01y44                JUNCTION             15.58      3.50       0.0
  01y46                JUNCTION             12.41      5.35       0.0
  02y33                JUNCTION              5.67      4.43       0.0
  02y34                JUNCTION              8.10      4.63       0.0
  02y35                JUNCTION             10.06      4.73       0.0
  02y39                JUNCTION             12.47      5.31       0.0
  02y40                JUNCTION             14.17      4.03       0.0
  02y43                JUNCTION             16.21      2.44       0.0
  02y44                JUNCTION             11.12      7.20       0.0
  02y46                JUNCTION             11.89      6.21       0.0
  02y47N               JUNCTION             12.97      5.53       0.0
  02y47S               JUNCTION             17.16      1.34       0.0
  02y48                JUNCTION             17.68      1.15       0.0
  02y532               JUNCTION              6.59      3.20       0.0
  03y32                JUNCTION              5.06      2.98       0.0
  03y33                JUNCTION              5.58      4.90       0.0
  03y37                JUNCTION              8.95      6.43       0.0
  03y38                JUNCTION              9.97      5.70       0.0
  03y39                JUNCTION             11.18      5.95       0.0
  03y43                JUNCTION             15.46      3.44       0.0
  03y44N               JUNCTION             14.26      3.15       0.0
  03y44S               JUNCTION             10.31      7.10       0.0
  03y45                JUNCTION             15.32      2.11       0.0
  03y46                JUNCTION             15.89      3.38       0.0
  03y47                JUNCTION             16.45      2.75       0.0
  03y48                JUNCTION             16.90      2.08       0.0
  03y49                JUNCTION             17.41      1.85       0.0
  03y51                JUNCTION             18.58      1.67       0.0
  04y32                JUNCTION              4.52      2.75       0.0
  04y36                JUNCTION              6.75      6.07       0.0
  04y37                JUNCTION              7.85      4.65       0.0
  04y44N               JUNCTION             13.31      2.69       0.0
  04y44S               JUNCTION              9.39      6.91       0.0
  04y48                JUNCTION             17.93      1.22       0.0
  05e48y49             JUNCTION             17.60      2.07       0.0
  05y32                JUNCTION              0.25      6.62       0.0
  05y33                JUNCTION              3.73      4.96       0.0
  05y34                JUNCTION              4.17      5.94       0.0
  05y35                JUNCTION              4.61      6.26       0.0
  05y36                JUNCTION              5.03      5.34       0.0
  05y37                JUNCTION              5.62      5.86       0.0
  05y38                JUNCTION              6.01      7.99       0.0
  05y39                JUNCTION              6.41      8.38       0.0
  05y41                JUNCTION              7.16      7.38       0.0
  05y42                JUNCTION              7.66      8.34       0.0
  05y43                JUNCTION              8.03      7.95       0.0
  05y44                JUNCTION              8.30      6.05       0.0
  05y46                JUNCTION             16.13      2.37       0.0
  05y47                JUNCTION             16.66      2.50       0.0
  05y48                JUNCTION             17.15      2.24       0.0
  05y49                JUNCTION             17.79      1.65       0.0
  05y50                JUNCTION             18.16      1.55       0.0
  05y51                JUNCTION             18.76      1.38       0.0
  05yD77               JUNCTION             12.94      5.18       0.0
  Cierre               OUTFALL              -0.19      4.95       0.0
  
  
  ************
  Link Summary
  ************
  Name             From Node        To Node          Type            Length    %Slope Roughness
  ---------------------------------------------------------------------------------------------
  1                05y32            Cierre           CONDUIT          290.0    0.1517    0.0130
  2                05y33            05y32            CONDUIT          135.0    2.5786    0.0130
  3                04y32            05y32            CONDUIT          150.0    2.4474    0.0130
  4                03y32            04y32            CONDUIT          125.0    0.4320    0.0130
  5                02y532           03y32            CONDUIT          160.0    0.5813    0.0130
  6                03y33            03y32            CONDUIT          130.0    0.4000    0.0130
  7                02y33            03y33            CONDUIT          145.0    0.0621    0.0130
  8                01y33            02y33            CONDUIT          140.0    1.4001    0.0130
  9                02y34            02y33            CONDUIT          140.0    1.3073    0.0130
  10               02y35            02y34            CONDUIT          140.0    1.4001    0.0130
  11               05y34            05y33            CONDUIT          140.0    0.3143    0.0130
  12               05y35            05y34            CONDUIT          140.0    0.3143    0.0130
  13               05y36            05y35            CONDUIT          140.0    0.3000    0.0130
  14               04y36            05y36            CONDUIT          140.0    0.7857    0.0130
  15               04y37            04y36            CONDUIT          140.0    0.7857    0.0130
  16               03y37            04y37            CONDUIT          140.0    0.7857    0.0130
  17               03y38            03y37            CONDUIT          140.0    0.7286    0.0130
  18               03y39            03y38            CONDUIT          145.0    0.8345    0.0130
  19               02y39            03y39            CONDUIT          140.0    0.9215    0.0130
  20               05y37            05y36            CONDUIT          135.0    0.2889    0.0130
  21               05y38            05y37            CONDUIT          145.0    0.2690    0.0130
  22               05y39            05y38            CONDUIT          145.0    0.2759    0.0130
  23               05y41            05y39            CONDUIT          275.0    0.2727    0.0130
  24               05y42            05y41            CONDUIT          145.0    0.2759    0.0130
  25               02y40            02y39            CONDUIT          140.0    0.7857    0.0130
  26               01y40            02y40            CONDUIT          120.0    0.6000    0.0130
  27               05y43            05y42            CONDUIT          135.0    0.2741    0.0130
  28               05y44            05y43            CONDUIT          135.0    0.2000    0.0130
  29               01y43N           02y43            CONDUIT          125.0    0.4960    0.0130
  30               02y43            03y43            CONDUIT          140.0    0.5000    0.0130
  31               03y43            03y44N           CONDUIT          145.0    0.4828    0.0130
  34               01y44            02y44            CONDUIT          140.0    0.4000    0.0130
  35               02y44            03y44S           CONDUIT          135.0    0.6000    0.0130
  37               01y46            02y46            CONDUIT          130.0    0.4000    0.0130
  38               02y47N           02y46            CONDUIT          110.0    0.4364    0.0130
  41               02y47S           03y47            CONDUIT          120.0    0.4250    0.0130
  42               04y48            03y48            CONDUIT          140.0    0.5429    0.0130
  43               02y48            03y48            CONDUIT          140.0    0.4143    0.0130
  44               03y51            03y49            CONDUIT          150.0    0.6467    0.0130
  45               03y49            03y48            CONDUIT          110.0    0.4636    0.0130
  46               03y48            03y47            CONDUIT          110.0    0.4091    0.0130
  47               03y47            03y46            CONDUIT          110.0    0.4182    0.0130
  48               03y46            03y45            CONDUIT          140.0    0.4071    0.0130
  49               03y45            03y44S           CONDUIT          140.0    3.1516    0.0130
  50               03y44N           04y44N           CONDUIT          140.0    0.6786    0.0130
  51               04y44N           05y44            CONDUIT          140.0    1.2430    0.0130
  52               03y44S           04y44S           CONDUIT          150.0    0.6133    0.0130
  53               04y44S           05y44            CONDUIT          140.0    0.7072    0.0130
  54               01y43S           01e43y44         CONDUIT           65.0    0.4000    0.0130
  55               01e43y44         01y44            CONDUIT           75.0    0.4000    0.0130
  64               05yD77           05y44            CONDUIT          245.0    0.3469    0.0130
  65               05y46            05yD77           CONDUIT           40.0    8.0005    0.0130
  66               05y47            05y46            CONDUIT          115.0    0.4609    0.0130
  68               05y48            05y47            CONDUIT          105.0    0.4667    0.0130
  69               05e48y49         05y48            CONDUIT           65.0    0.4615    0.0130
  70               05y49            05e48y49         CONDUIT           40.0    0.4750    0.0130
  71               05y50            05y49            CONDUIT           80.0    0.4625    0.0130
  72               05y51            05y50            CONDUIT           70.0    0.8572    0.0130
  32               02y46            02y44            CONDUIT          270.0    0.2852    0.0130
  
  
  *********************
  Cross Section Summary
  *********************
                                        Full     Full     Hyd.     Max.   No. of     Full
  Conduit          Shape               Depth     Area     Rad.    Width  Barrels     Flow
  ---------------------------------------------------------------------------------------
  1                CIRCULAR             4.95    19.24     1.24     4.95        1    66.47
  2                CIRCULAR             1.90     2.84     0.47     1.90        1    21.32
  3                CIRCULAR             1.20     1.13     0.30     1.20        1     6.10
  4                CIRCULAR             1.20     1.13     0.30     1.20        1     2.56
  5                CIRCULAR             0.60     0.28     0.15     0.60        1     0.47
  6                CIRCULAR             1.20     1.13     0.30     1.20        1     2.47
  7                CIRCULAR             1.20     1.13     0.30     1.20        1     0.97
  8                CIRCULAR             0.60     0.28     0.15     0.60        1     0.73
  9                CIRCULAR             0.60     0.28     0.15     0.60        1     0.70
  10               CIRCULAR             0.60     0.28     0.15     0.60        1     0.73
  11               CIRCULAR             1.90     2.84     0.47     1.90        1     7.44
  12               CIRCULAR             1.90     2.84     0.47     1.90        1     7.44
  13               CIRCULAR             1.90     2.84     0.47     1.90        1     7.27
  14               CIRCULAR             1.20     1.13     0.30     1.20        1     3.46
  15               CIRCULAR             1.20     1.13     0.30     1.20        1     3.46
  16               CIRCULAR             1.20     1.13     0.30     1.20        1     3.46
  17               CIRCULAR             1.20     1.13     0.30     1.20        1     3.33
  18               CIRCULAR             1.20     1.13     0.30     1.20        1     3.56
  19               CIRCULAR             1.20     1.13     0.30     1.20        1     3.74
  20               CIRCULAR             1.70     2.27     0.42     1.70        1     5.31
  21               CIRCULAR             1.70     2.27     0.42     1.70        1     5.12
  22               CIRCULAR             1.70     2.27     0.42     1.70        1     5.18
  23               CIRCULAR             1.70     2.27     0.42     1.70        1     5.16
  24               CIRCULAR             1.60     2.01     0.40     1.60        1     4.41
  25               CIRCULAR             0.60     0.28     0.15     0.60        1     0.54
  26               CIRCULAR             0.60     0.28     0.15     0.60        1     0.48
  27               CIRCULAR             1.60     2.01     0.40     1.60        1     4.40
  28               CIRCULAR             1.60     2.01     0.40     1.60        1     3.76
  29               CIRCULAR             0.40     0.13     0.10     0.40        1     0.15
  30               CIRCULAR             0.45     0.16     0.11     0.45        1     0.20
  31               CIRCULAR             0.50     0.20     0.12     0.50        1     0.26
  34               CIRCULAR             0.80     0.50     0.20     0.80        1     0.84
  35               CIRCULAR             1.20     1.13     0.30     1.20        1     3.02
  37               CIRCULAR             1.20     1.13     0.30     1.20        1     2.47
  38               CIRCULAR             0.60     0.28     0.15     0.60        1     0.41
  41               CIRCULAR             0.30     0.07     0.07     0.30        1     0.06
  42               CIRCULAR             0.23     0.04     0.06     0.23        1     0.04
  43               CIRCULAR             0.30     0.07     0.07     0.30        1     0.06
  44               CIRCULAR             0.30     0.07     0.07     0.30        1     0.08
  45               CIRCULAR             0.50     0.20     0.12     0.50        1     0.26
  46               CIRCULAR             0.50     0.20     0.12     0.50        1     0.24
  47               CIRCULAR             0.50     0.20     0.12     0.50        1     0.24
  48               CIRCULAR             0.60     0.28     0.15     0.60        1     0.39
  49               CIRCULAR             0.60     0.28     0.15     0.60        1     1.09
  50               CIRCULAR             1.00     0.79     0.25     1.00        1     1.98
  51               CIRCULAR             0.70     0.38     0.17     0.70        1     1.03
  52               CIRCULAR             1.20     1.13     0.30     1.20        1     3.05
  53               CIRCULAR             1.20     1.13     0.30     1.20        1     3.28
  54               CIRCULAR             0.60     0.28     0.15     0.60        1     0.39
  55               CIRCULAR             0.60     0.28     0.15     0.60        1     0.39
  64               CIRCULAR             0.45     0.16     0.11     0.45        1     0.17
  65               CIRCULAR             0.45     0.16     0.11     0.45        1     0.81
  66               CIRCULAR             0.45     0.16     0.11     0.45        1     0.19
  68               CIRCULAR             0.45     0.16     0.11     0.45        1     0.19
  69               CIRCULAR             0.30     0.07     0.07     0.30        1     0.07
  70               CIRCULAR             0.30     0.07     0.07     0.30        1     0.07
  71               CIRCULAR             0.30     0.07     0.07     0.30        1     0.07
  72               CIRCULAR             0.30     0.07     0.07     0.30        1     0.09
  32               CIRCULAR             1.20     1.13     0.30     1.20        1     2.08
  
  
  
  *********************************************************
  NOTE: The summary statistics displayed in this report are
  based on results found at every computational time step,  
  not just on results from each reporting time step.
  *********************************************************
  
  ****************
  Analysis Options
  ****************
  Flow Units ............... CMS
  Process Models:
    Rainfall/Runoff ........ YES
    RDII ................... NO
    Snowmelt ............... NO
    Groundwater ............ NO
    Flow Routing ........... YES
    Ponding Allowed ........ NO
    Water Quality .......... NO
  Infiltration Method ...... HORTON
  Flow Routing Method ...... DYNWAVE
  Starting Date ............ 10/01/2003 00:00:00
  Ending Date .............. 10/01/2003 07:00:00
  Antecedent Dry Days ...... 0.0
  Report Time Step ......... 00:01:00
  Wet Time Step ............ 00:05:00
  Dry Time Step ............ 00:00:00
  Routing Time Step ........ 5.00 sec
  Variable Time Step ....... NO
  Maximum Trials ........... 8
  Number of Threads ........ 1
  Head Tolerance ........... 0.001524 m
  
  
  **************************        Volume         Depth
  Runoff Quantity Continuity     hectare-m            mm
  **************************     ---------       -------
  Total Precipitation ......         4.605        26.360
  Evaporation Loss .........         0.000         0.000
  Infiltration Loss ........         1.265         7.243
  Surface Runoff ...........         3.341        19.126
  Final Storage ............         0.017         0.099
  Continuity Error (%) .....        -0.411
  
  
  **************************        Volume        Volume
  Flow Routing Continuity        hectare-m      10^6 ltr
  **************************     ---------     ---------
  Dry Weather Inflow .......         0.000         0.000
  Wet Weather Inflow .......         3.341        33.413
  Groundwater Inflow .......         0.000         0.000
  RDII Inflow ..............         0.000         0.000
  External Inflow ..........         0.000         0.000
  External Outflow .........         3.137        31.373
  Flooding Loss ............         0.192         1.924
  Evaporation Loss .........         0.000         0.000
  Exfiltration Loss ........         0.000         0.000
  Initial Stored Volume ....         0.000         0.000
  Final Stored Volume ......         0.009         0.090
  Continuity Error (%) .....         0.078
  
  
  *************************
  Highest Continuity Errors
  *************************
  Node 04y44N (1.04%)
  
  
  ********************************
  Highest Flow Instability Indexes
  ********************************
  Link 47 (3)
  Link 69 (1)
  Link 70 (1)
  Link 65 (1)
  
  
  *************************
  Routing Time Step Summary
  *************************
  Minimum Time Step           :     4.00 sec
  Average Time Step           :     5.00 sec
  Maximum Time Step           :     5.00 sec
  Percent in Steady State     :     0.00
  Average Iterations per Step :     2.72
  Percent Not Converging      :     7.36
  
  
  ***************************
  Subcatchment Runoff Summary
  ***************************
  
  --------------------------------------------------------------------------------------------------------
                            Total      Total      Total      Total      Total       Total     Peak  Runoff
                           Precip      Runon       Evap      Infil     Runoff      Runoff   Runoff   Coeff
  Subcatchment                 mm         mm         mm         mm         mm    10^6 ltr      CMS
  --------------------------------------------------------------------------------------------------------
  c3y51                     26.36       0.00       0.00       6.55      19.87        0.15     0.10   0.754
  c2y48                     26.36       0.00       0.00       6.56      19.80        0.27     0.15   0.751
  c3y49                     26.36       0.00       0.00       6.55      19.84        0.33     0.20   0.753
  c4y48                     26.36       0.00       0.00       6.57      19.69        0.54     0.24   0.747
  c3y48                     26.36       0.00       0.00       6.55      19.85        0.59     0.36   0.753
  c2y47S                    26.36       0.00       0.00       6.55      19.84        0.46     0.28   0.753
  c3y47                     26.36       0.00       0.00       6.55      19.91        0.13     0.10   0.755
  c3y46                     26.36       0.00       0.00       6.56      19.83        0.15     0.09   0.752
  c3y45                     26.36       0.00       0.00       6.56      19.72        0.62     0.29   0.748
  c1y46                     26.36       0.00       0.00       6.56      19.76        1.66     0.84   0.750
  c2y47N                    26.36       0.00       0.00       6.56      19.83        0.45     0.27   0.752
  c2y46                     26.36       0.00       0.00       6.55      19.89        0.20     0.14   0.755
  c1y43S                    26.36       0.00       0.00       6.55      19.84        0.31     0.18   0.753
  c1e43y44                  26.36       0.00       0.00       6.55      19.90        0.23     0.17   0.755
  c1y44                     26.36       0.00       0.00       6.54      19.90        0.03     0.02   0.755
  c2y44                     26.36       0.00       0.00       6.55      19.88        0.20     0.14   0.754
  c4y44S                    26.36       0.00       0.00       6.55      19.90        0.41     0.30   0.755
  c3y44S                    26.36       0.00       0.00       6.56      19.73        0.91     0.43   0.748
  c1y43N                    26.36       0.00       0.00       6.56      19.77        0.44     0.23   0.750
  c2y43                     26.36       0.00       0.00       6.55      19.87        0.41     0.27   0.754
  c3y44N                    26.36       0.00       0.00       6.56      19.83        0.49     0.29   0.752
  c4y44N                    26.36       0.00       0.00       6.55      19.87        0.42     0.28   0.754
  c5y44                     26.36       0.00       0.00       6.55      19.85        0.79     0.49   0.753
  c5y43                     26.36       0.00       0.00       6.55      19.89        0.20     0.14   0.754
  c5y42                     26.36       0.00       0.00       6.56      19.75        1.97     0.97   0.749
  c5y41                     26.36       0.00       0.00       6.56      19.82        1.03     0.59   0.752
  c5y39                     26.36       0.00       0.00       6.56      19.83        0.95     0.55   0.752
  c5y38                     26.36       0.00       0.00       6.55      19.89        0.30     0.21   0.754
  c5y37                     26.36       0.00       0.00       6.55      19.90        0.41     0.31   0.755
  c1y40                     26.36       0.00       0.00       6.56      19.75        1.16     0.57   0.749
  c2y40                     26.36       0.00       0.00       6.56      19.83        0.62     0.36   0.752
  c2y39                     26.36       0.00       0.00       6.56      19.81        0.66     0.37   0.752
  c3y39                     26.36       0.00       0.00       6.56      19.77        0.36     0.18   0.750
  c3y38                     26.36       0.00       0.00       6.55      19.85        0.50     0.31   0.753
  c3y37                     26.36       0.00       0.00       6.56      19.80        0.94     0.52   0.751
  c4y37                     26.36       0.00       0.00       6.55      19.87        1.20     0.79   0.754
  c4y36                     26.36       0.00       0.00       6.55      19.85        0.38     0.24   0.753
  c5y36                     26.36       0.00       0.00       6.55      19.90        0.58     0.43   0.755
  c5y35                     26.36       0.00       0.00       6.56      19.73        1.09     0.52   0.749
  c5y34                     26.36       0.00       0.00       6.55      19.85        0.39     0.24   0.753
  c5y33                     26.36       0.00       0.00       6.55      19.86        0.51     0.33   0.754
  c2y34                     26.36       0.00       0.00       6.55      19.86        0.21     0.13   0.753
  c1y33                     26.36       0.00       0.00       6.57      19.69        2.31     1.03   0.747
  c2y33                     26.36       0.00       0.00       6.56      19.83        1.08     0.64   0.752
  c3y33                     26.36       0.00       0.00       6.56      19.82        0.65     0.37   0.752
  c2y532                    26.36       0.00       0.00      13.10      13.35        0.40     0.39   0.506
  c3y32                     26.36       0.00       0.00      13.12      13.34        0.43     0.39   0.506
  c4y32                     26.36       0.00       0.00      13.13      13.33        1.01     0.86   0.506
  c5y32                     26.36       0.00       0.00      13.12      13.34        0.35     0.32   0.506
  c2y35                     26.36       0.00       0.00       6.56      19.81        0.87     0.49   0.752
  c5yD77                    26.36       0.00       0.00       6.55      19.88        0.12     0.08   0.754
  c5y46                     26.36       0.00       0.00       6.56      19.79        0.64     0.34   0.751
  c5y47                     26.36       0.00       0.00       6.56      19.79        0.57     0.31   0.751
  c5y48                     26.36       0.00       0.00      16.41      10.08        0.12     0.14   0.382
  c5e48y49                  26.36       0.00       0.00       6.56      19.81        0.24     0.13   0.751
  c5y49                     26.36       0.00       0.00       6.55      19.87        0.20     0.13   0.754
  c5y50                     26.36       0.00       0.00       6.56      19.79        0.51     0.27   0.751
  c5y51                     26.36       0.00       0.00       6.55      19.86        0.28     0.18   0.753
  
  
  ******************
  Node Depth Summary
  ******************
  
  ---------------------------------------------------------------------------------
                                 Average  Maximum  Maximum  Time of Max    Reported
                                   Depth    Depth      HGL   Occurrence   Max Depth
  Node                 Type       Meters   Meters   Meters  days hr:min      Meters
  ---------------------------------------------------------------------------------
  01e43y44             JUNCTION     0.06     0.43    16.51     0  00:47        0.43
  01y33                JUNCTION     0.15     3.96    12.19     0  00:47        3.19
  01y40                JUNCTION     0.12     2.75    17.64     0  00:44        2.75
  01y43N               JUNCTION     0.10     1.57    18.45     0  00:43        1.57
  01y43S               JUNCTION     0.04     0.29    16.63     0  00:46        0.29
  01y44                JUNCTION     0.05     0.36    15.94     0  00:48        0.36
  01y46                JUNCTION     0.08     0.48    12.89     0  00:46        0.48
  02y33                JUNCTION     0.23     2.72     8.39     0  00:47        1.93
  02y34                JUNCTION     0.06     0.49     8.59     0  00:49        0.49
  02y35                JUNCTION     0.05     0.36    10.42     0  00:45        0.36
  02y39                JUNCTION     0.08     0.48    12.95     0  00:46        0.48
  02y40                JUNCTION     0.13     2.55    16.72     0  00:44        2.47
  02y43                JUNCTION     0.13     2.44    18.65     0  00:43        2.06
  02y44                JUNCTION     0.10     0.77    11.89     0  00:55        0.77
  02y46                JUNCTION     0.11     0.66    12.55     0  00:48        0.66
  02y47N               JUNCTION     0.05     0.35    13.32     0  00:47        0.35
  02y47S               JUNCTION     0.15     1.34    18.50     0  00:37        1.34
  02y48                JUNCTION     0.12     1.15    18.83     0  00:41        1.15
  02y532               JUNCTION     0.04     0.40     6.99     0  00:46        0.40
  03y32                JUNCTION     0.18     2.06     7.12     0  00:47        1.56
  03y33                JUNCTION     0.16     2.26     7.84     0  00:47        1.57
  03y37                JUNCTION     0.11     0.70     9.65     0  00:48        0.70
  03y38                JUNCTION     0.10     0.61    10.58     0  00:48        0.61
  03y39                JUNCTION     0.09     0.53    11.71     0  00:47        0.53
  03y43                JUNCTION     0.09     1.42    16.88     0  00:45        0.85
  03y44N               JUNCTION     0.07     0.38    14.64     0  00:46        0.38
  03y44S               JUNCTION     0.16     2.88    13.19     0  00:52        1.48
  03y45                JUNCTION     0.08     0.38    15.70     0  00:46        0.38
  03y46                JUNCTION     0.15     1.53    17.42     0  00:41        1.05
  03y47                JUNCTION     0.21     2.01    18.46     0  00:41        1.89
  03y48                JUNCTION     0.22     2.08    18.98     0  00:41        2.08
  03y49                JUNCTION     0.15     1.85    19.26     0  00:40        1.85
  03y51                JUNCTION     0.08     1.67    20.25     0  00:42        1.67
  04y32                JUNCTION     0.11     0.69     5.21     0  00:48        0.69
  04y36                JUNCTION     0.14     2.92     9.67     0  00:51        1.61
  04y37                JUNCTION     0.13     0.93     8.78     0  00:52        0.93
  04y44N               JUNCTION     0.36     0.79    14.10     0  00:48        0.79
  04y44S               JUNCTION     0.17     2.56    11.95     0  00:52        1.96
  04y48                JUNCTION     0.21     1.22    19.15     0  00:36        1.22
  05e48y49             JUNCTION     0.26     2.07    19.67     0  00:40        2.06
  05y32                JUNCTION     0.31     1.48     1.73     0  00:53        1.48
  05y33                JUNCTION     0.17     0.89     4.62     0  00:52        0.89
  05y34                JUNCTION     0.35     2.32     6.49     0  00:50        2.27
  05y35                JUNCTION     0.32     2.63     7.24     0  00:51        2.49
  05y36                JUNCTION     0.32     2.82     7.85     0  00:51        2.67
  05y37                JUNCTION     0.29     2.96     8.58     0  00:50        2.64
  05y38                JUNCTION     0.29     3.40     9.41     0  00:50        2.62
  05y39                JUNCTION     0.29     3.72    10.13     0  00:50        2.67
  05y41                JUNCTION     0.28     3.44    10.60     0  00:50        2.67
  05y42                JUNCTION     0.28     2.98    10.64     0  00:50        2.62
  05y43                JUNCTION     0.25     2.86    10.89     0  00:50        2.55
  05y44                JUNCTION     0.27     2.59    10.89     0  00:53        2.57
  05y46                JUNCTION     0.20     2.37    18.50     0  00:40        2.37
  05y47                JUNCTION     0.26     2.50    19.16     0  00:40        2.50
  05y48                JUNCTION     0.21     2.24    19.39     0  00:42        2.24
  05y49                JUNCTION     0.25     1.65    19.44     0  00:38        1.65
  05y50                JUNCTION     0.24     1.55    19.71     0  00:34        1.55
  05y51                JUNCTION     0.17     1.38    20.14     0  00:34        1.38
  05yD77               JUNCTION     0.55     5.01    17.95     0  00:40        4.95
  Cierre               OUTFALL      0.23     1.34     1.15     0  00:52        1.34
  
  
  *******************
  Node Inflow Summary
  *******************
  
  -------------------------------------------------------------------------------------------------
                                  Maximum  Maximum                  Lateral       Total        Flow
                                  Lateral    Total  Time of Max      Inflow      Inflow     Balance
                                   Inflow   Inflow   Occurrence      Volume      Volume       Error
  Node                 Type           CMS      CMS  days hr:min    10^6 ltr    10^6 ltr     Percent
  -------------------------------------------------------------------------------------------------
  01e43y44             JUNCTION     0.171    0.346     0  00:45       0.229       0.536       0.017
  01y33                JUNCTION     1.034    1.034     0  00:45        2.31        2.31       0.017
  01y40                JUNCTION     0.571    0.571     0  00:45        1.16        1.16      -0.061
  01y43N               JUNCTION     0.226    0.226     0  00:45       0.445       0.445      -0.342
  01y43S               JUNCTION     0.184    0.184     0  00:45       0.307       0.307       0.033
  01y44                JUNCTION     0.021    0.349     0  00:47      0.0259       0.562       0.030
  01y46                JUNCTION     0.841    0.841     0  00:45        1.66        1.66      -0.004
  02y33                JUNCTION     0.635    2.239     0  00:46        1.08        4.47       0.002
  02y34                JUNCTION     0.133    0.610     0  00:45       0.209        1.08       0.138
  02y35                JUNCTION     0.487    0.487     0  00:45       0.874       0.874       0.004
  02y39                JUNCTION     0.371    1.280     0  00:45        0.66        2.44       0.001
  02y40                JUNCTION     0.361    0.913     0  00:45       0.619        1.78       0.006
  02y43                JUNCTION     0.268    0.371     0  00:45       0.409       0.791       0.139
  02y44                JUNCTION     0.136    1.656     0  00:48       0.199        3.07       0.053
  02y46                JUNCTION     0.141    1.216     0  00:46       0.199        2.31       0.035
  02y47N               JUNCTION     0.266    0.266     0  00:45       0.452       0.452       0.032
  02y47S               JUNCTION     0.277    0.277     0  00:45       0.456       0.456       0.425
  02y48                JUNCTION     0.146    0.178     0  00:45       0.269       0.301      -0.033
  02y532               JUNCTION     0.386    0.386     0  00:45       0.398       0.398       2.452
  03y32                JUNCTION     0.395    3.173     0  00:47       0.434        5.94      -0.140
  03y33                JUNCTION     0.373    2.613     0  00:45       0.654        5.12      -0.004
  03y37                JUNCTION     0.517    2.213     0  00:48       0.941        4.24       0.028
  03y38                JUNCTION     0.307    1.732     0  00:47       0.502         3.3       0.019
  03y39                JUNCTION     0.182    1.457     0  00:46       0.358        2.79       0.030
  03y43                JUNCTION     0.000    0.371     0  00:45           0        0.79      -0.101
  03y44N               JUNCTION     0.289    0.634     0  00:45       0.492        1.28      -0.038
  03y44S               JUNCTION     0.432    2.836     0  00:49       0.907        6.35       0.013
  03y45                JUNCTION     0.287    0.799     0  00:45       0.615        2.38       0.103
  03y46                JUNCTION     0.087    0.512     0  00:45       0.149        1.76       0.012
  03y47                JUNCTION     0.102    0.454     0  00:41       0.133        1.61      -0.062
  03y48                JUNCTION     0.363    0.570     0  00:45       0.586        1.39       0.006
  03y49                JUNCTION     0.200    0.278     0  00:45       0.329       0.475      -0.347
  03y51                JUNCTION     0.099    0.099     0  00:45       0.151       0.152       0.396
  04y32                JUNCTION     0.862    3.946     0  00:47        1.01        6.97       0.517
  04y36                JUNCTION     0.235    3.107     0  00:49       0.375        5.81       0.472
  04y37                JUNCTION     0.794    2.908     0  00:48         1.2        5.44       0.018
  04y44N               JUNCTION     0.278    0.883     0  00:46       0.421         1.7       1.051
  04y44S               JUNCTION     0.301    3.055     0  00:50       0.408        6.76      -0.007
  04y48                JUNCTION     0.244    0.244     0  00:45       0.541       0.541       0.005
  05e48y49             JUNCTION     0.132    0.146     0  00:38       0.238       0.572       0.026
  05y32                JUNCTION     0.322   13.093     0  00:51       0.354        31.4      -0.001
  05y33                JUNCTION     0.327    9.495     0  00:52       0.508        24.1       0.005
  05y34                JUNCTION     0.242    9.267     0  00:52       0.393        23.6       0.013
  05y35                JUNCTION     0.520    9.094     0  00:53        1.09        23.2       0.011
  05y36                JUNCTION     0.431    8.671     0  00:53       0.579        22.1       0.175
  05y37                JUNCTION     0.308    5.781     0  00:50       0.406        15.7      -0.233
  05y38                JUNCTION     0.208    5.881     0  00:49         0.3        15.3       0.008
  05y39                JUNCTION     0.549    6.077     0  00:49       0.948          15      -0.037
  05y41                JUNCTION     0.588    5.802     0  00:49        1.03        14.1      -0.011
  05y42                JUNCTION     0.967    5.360     0  00:49        1.97        13.1       0.160
  05y43                JUNCTION     0.138    4.574     0  00:49       0.199        11.1      -0.015
  05y44                JUNCTION     0.487    4.559     0  00:49       0.794        10.9       0.019
  05y46                JUNCTION     0.342    0.558     0  00:45       0.643        1.68      -0.037
  05y47                JUNCTION     0.306    0.439     0  00:45        0.57        1.19       0.038
  05y48                JUNCTION     0.136    0.197     0  00:45       0.119       0.638       0.016
  05y49                JUNCTION     0.130    0.257     0  00:45       0.199       0.595       0.015
  05y50                JUNCTION     0.268    0.343     0  00:45       0.506       0.726       0.039
  05y51                JUNCTION     0.178    0.178     0  00:45        0.28        0.28      -0.052
  05yD77               JUNCTION     0.077    0.429     0  00:45       0.115        1.67       0.052
  Cierre               OUTFALL      0.000   12.852     0  00:52           0        31.4       0.000
  
  
  **********************
  Node Surcharge Summary
  **********************
  
  Surcharging occurs when water rises above the top of the highest conduit.
  ---------------------------------------------------------------------
                                               Max. Height   Min. Depth
                                   Hours       Above Crown    Below Rim
  Node                 Type      Surcharged         Meters       Meters
  ---------------------------------------------------------------------
  01y33                JUNCTION        0.20          3.361        1.329
  01y40                JUNCTION        0.19          2.150        0.000
  01y43N               JUNCTION        0.27          1.170        0.000
  02y33                JUNCTION        0.15          1.524        1.706
  02y40                JUNCTION        0.24          1.950        1.480
  02y43                JUNCTION        0.34          1.990        0.000
  02y47S               JUNCTION        0.70          1.040        0.000
  02y48                JUNCTION        0.57          0.850        0.000
  03y32                JUNCTION        0.12          0.859        0.921
  03y33                JUNCTION        0.08          1.059        2.641
  03y43                JUNCTION        0.19          0.923        2.017
  03y44S               JUNCTION        0.09          1.680        4.220
  03y46                JUNCTION        0.46          0.931        1.849
  03y47                JUNCTION        0.81          1.510        0.740
  03y48                JUNCTION        0.70          1.580        0.000
  03y49                JUNCTION        0.50          1.350        0.000
  03y51                JUNCTION        0.35          1.370        0.000
  04y36                JUNCTION        0.08          1.723        3.147
  04y44S               JUNCTION        0.15          1.360        4.350
  04y48                JUNCTION        1.06          0.990        0.000
  05e48y49             JUNCTION        1.13          1.770        0.000
  05y34                JUNCTION        0.17          0.417        3.623
  05y35                JUNCTION        0.18          0.727        3.633
  05y36                JUNCTION        0.18          0.923        2.517
  05y37                JUNCTION        0.18          1.264        2.896
  05y38                JUNCTION        0.19          1.701        4.589
  05y39                JUNCTION        0.20          2.017        4.663
  05y41                JUNCTION        0.17          1.737        3.943
  05y42                JUNCTION        0.18          1.381        5.359
  05y43                JUNCTION        0.16          1.257        5.093
  05y46                JUNCTION        0.56          1.920        0.000
  05y47                JUNCTION        0.82          2.050        0.000
  05y48                JUNCTION        0.59          1.790        0.000
  05y49                JUNCTION        1.08          1.350        0.000
  05y50                JUNCTION        1.00          1.250        0.000
  05y51                JUNCTION        0.88          1.080        0.000
  05yD77               JUNCTION        0.99          4.557        0.173
  
  
  *********************
  Node Flooding Summary
  *********************
  
  Flooding refers to all water that overflows a node, whether it ponds or not.
  --------------------------------------------------------------------------
                                                             Total   Maximum
                                 Maximum   Time of Max       Flood    Ponded
                        Hours       Rate    Occurrence      Volume     Depth
  Node                 Flooded       CMS   days hr:min    10^6 ltr    Meters
  --------------------------------------------------------------------------
  01y40                   0.04     0.150      0  00:44       0.003     0.000
  01y43N                  0.19     0.147      0  00:45       0.065     0.000
  02y43                   0.01     0.061      0  00:43       0.000     0.000
  02y47S                  0.50     0.241      0  00:45       0.196     0.000
  02y48                   0.45     0.178      0  00:45       0.173     0.000
  03y48                   0.26     0.250      0  00:45       0.135     0.000
  03y49                   0.20     0.107      0  00:40       0.042     0.000
  03y51                   0.14     0.081      0  00:42       0.006     0.000
  04y48                   0.87     0.227      0  00:45       0.302     0.000
  05e48y49                0.01     0.002      0  00:40       0.000     0.000
  05y46                   0.33     0.205      0  00:45       0.127     0.000
  05y47                   0.34     0.223      0  00:45       0.156     0.000
  05y48                   0.14     0.063      0  00:45       0.016     0.000
  05y49                   0.53     0.256      0  00:45       0.260     0.000
  05y50                   0.80     0.287      0  00:45       0.383     0.000
  05y51                   0.32     0.102      0  00:45       0.060     0.000
  
  
  ***********************
  Outfall Loading Summary
  ***********************
  
  -----------------------------------------------------------
                         Flow       Avg       Max       Total
                         Freq      Flow      Flow      Volume
  Outfall Node           Pcnt       CMS       CMS    10^6 ltr
  -----------------------------------------------------------
  Cierre                98.63     1.262    12.852      31.373
  -----------------------------------------------------------
  System                98.63     1.262    12.852      31.373
  
  
  ********************
  Link Flow Summary
  ********************
  
  -----------------------------------------------------------------------------
                                 Maximum  Time of Max   Maximum    Max/    Max/
                                  |Flow|   Occurrence   |Veloc|    Full    Full
  Link                 Type          CMS  days hr:min     m/sec    Flow   Depth
  -----------------------------------------------------------------------------
  1                    CONDUIT    12.852     0  00:52      2.86    0.19    0.28
  2                    CONDUIT     9.493     0  00:52      5.12    0.45    0.62
  3                    CONDUIT     3.876     0  00:48      5.70    0.64    0.63
  4                    CONDUIT     3.182     0  00:47      3.36    1.24    0.79
  5                    CONDUIT     0.361     0  00:46      1.74    0.77    0.83
  6                    CONDUIT     2.527     0  00:47      2.23    1.02    1.00
  7                    CONDUIT     2.243     0  00:45      2.16    2.31    1.00
  8                    CONDUIT     1.033     0  00:45      3.65    1.42    1.00
  9                    CONDUIT     0.602     0  00:51      2.42    0.86    0.91
  10                   CONDUIT     0.480     0  00:46      2.52    0.66    0.70
  11                   CONDUIT     9.267     0  00:52      4.16    1.24    0.73
  12                   CONDUIT     9.094     0  00:52      3.21    1.22    1.00
  13                   CONDUIT     8.672     0  00:53      3.06    1.19    1.00
  14                   CONDUIT     3.093     0  00:49      3.35    0.89    1.00
  15                   CONDUIT     2.896     0  00:49      3.36    0.84    0.89
  16                   CONDUIT     2.203     0  00:49      2.88    0.64    0.66
  17                   CONDUIT     1.720     0  00:48      2.74    0.52    0.54
  18                   CONDUIT     1.442     0  00:47      2.75    0.40    0.48
  19                   CONDUIT     1.277     0  00:46      2.92    0.34    0.42
  20                   CONDUIT     5.791     0  01:04      2.71    1.09    1.00
  21                   CONDUIT     5.678     0  01:03      2.61    1.11    1.00
  22                   CONDUIT     5.709     0  00:49      2.66    1.10    1.00
  23                   CONDUIT     5.574     0  00:49      2.60    1.08    1.00
  24                   CONDUIT     5.265     0  00:50      2.74    1.19    1.00
  25                   CONDUIT     0.913     0  00:45      3.25    1.68    0.98
  26                   CONDUIT     0.562     0  00:46      1.99    1.18    1.00
  27                   CONDUIT     4.435     0  00:50      2.30    1.01    1.00
  28                   CONDUIT     4.459     0  00:49      2.41    1.19    1.00
  29                   CONDUIT     0.159     0  00:55      1.26    1.08    1.00
  30                   CONDUIT     0.371     0  00:45      2.35    1.84    1.00
  31                   CONDUIT     0.347     0  00:45      1.86    1.32    0.90
  34                   CONDUIT     0.340     0  00:48      1.59    0.41    0.44
  35                   CONDUIT     1.637     0  00:49      2.14    0.54    0.82
  37                   CONDUIT     0.831     0  00:46      1.67    0.34    0.47
  38                   CONDUIT     0.255     0  00:47      1.55    0.63    0.56
  41                   CONDUIT     0.094     0  00:39      1.33    1.49    1.00
  42                   CONDUIT     0.056     0  00:38      1.37    1.61    1.00
  43                   CONDUIT     0.053     0  01:07      0.87    0.85    1.00
  44                   CONDUIT     0.079     0  00:48      1.11    1.01    1.00
  45                   CONDUIT     0.191     0  00:54      0.97    0.74    1.00
  46                   CONDUIT     0.330     0  00:56      1.68    1.37    1.00
  47                   CONDUIT     0.454     0  00:41      2.32    1.86    1.00
  48                   CONDUIT     0.512     0  00:45      2.09    1.31    0.82
  49                   CONDUIT     0.792     0  00:46      4.20    0.73    0.80
  50                   CONDUIT     0.617     0  00:46      1.32    0.31    0.58
  51                   CONDUIT     0.857     0  00:48      3.00    0.83    0.70
  52                   CONDUIT     2.826     0  00:50      3.05    0.93    1.00
  53                   CONDUIT     2.849     0  00:49      2.70    0.87    1.00
  54                   CONDUIT     0.181     0  00:46      1.05    0.47    0.60
  55                   CONDUIT     0.331     0  00:47      1.63    0.85    0.68
  64                   CONDUIT     0.429     0  00:45      2.72    2.56    0.97
  65                   CONDUIT     0.395     0  01:00      2.58    0.49    1.00
  66                   CONDUIT     0.301     0  00:40      1.96    1.56    1.00
  68                   CONDUIT     0.169     0  00:40      1.10    0.87    1.00
  69                   CONDUIT     0.145     0  00:38      2.07    2.21    1.00
  70                   CONDUIT     0.105     0  00:35      1.48    1.57    1.00
  71                   CONDUIT     0.084     0  01:22      1.19    1.27    1.00
  72                   CONDUIT     0.076     0  00:45      1.07    0.85    1.00
  32                   CONDUIT     1.197     0  00:48      1.96    0.58    0.56
  
  
  ***************************
  Flow Classification Summary
  ***************************
  
  -------------------------------------------------------------------------------------
                      Adjusted    ---------- Fraction of Time in Flow Class ---------- 
                       /Actual         Up    Down  Sub   Sup   Up    Down  Norm  Inlet 
  Conduit               Length    Dry  Dry   Dry   Crit  Crit  Crit  Crit  Ltd   Ctrl  
  -------------------------------------------------------------------------------------
  1                       1.00   0.01  0.00  0.00  0.70  0.29  0.00  0.00  0.00  0.00
  2                       1.00   0.01  0.00  0.00  0.36  0.63  0.00  0.00  0.99  0.00
  3                       1.00   0.01  0.00  0.00  0.00  0.09  0.00  0.90  0.09  0.00
  4                       1.00   0.01  0.00  0.00  0.02  0.96  0.00  0.00  0.01  0.00
  5                       1.00   0.01  0.00  0.00  0.05  0.00  0.00  0.94  0.04  0.00
  6                       1.00   0.01  0.00  0.00  0.99  0.00  0.00  0.00  0.96  0.00
  7                       1.00   0.01  0.00  0.00  0.99  0.00  0.00  0.00  0.00  0.00
  8                       1.00   0.01  0.00  0.00  0.02  0.00  0.00  0.96  0.00  0.00
  9                       1.00   0.01  0.00  0.00  0.03  0.02  0.00  0.94  0.04  0.00
  10                      1.00   0.01  0.00  0.00  0.09  0.90  0.00  0.00  0.95  0.00
  11                      1.00   0.01  0.00  0.00  0.03  0.96  0.00  0.00  0.01  0.00
  12                      1.00   0.01  0.00  0.00  0.99  0.00  0.00  0.00  0.86  0.00
  13                      1.00   0.01  0.00  0.00  0.98  0.00  0.00  0.00  0.82  0.00
  14                      1.00   0.01  0.00  0.00  0.05  0.02  0.00  0.92  0.04  0.00
  15                      1.00   0.01  0.00  0.00  0.25  0.74  0.00  0.00  0.88  0.00
  16                      1.00   0.01  0.00  0.00  0.10  0.88  0.00  0.00  0.99  0.00
  17                      1.00   0.01  0.00  0.00  0.41  0.58  0.00  0.00  0.99  0.00
  18                      1.00   0.01  0.00  0.00  0.21  0.78  0.00  0.00  0.99  0.00
  19                      1.00   0.01  0.00  0.00  0.20  0.78  0.00  0.00  0.94  0.00
  20                      1.00   0.01  0.00  0.00  0.07  0.00  0.00  0.91  0.00  0.00
  21                      1.00   0.01  0.00  0.00  0.99  0.00  0.00  0.00  0.86  0.00
  22                      1.00   0.01  0.00  0.00  0.99  0.00  0.00  0.00  0.82  0.00
  23                      1.00   0.01  0.00  0.00  0.99  0.00  0.00  0.00  0.84  0.00
  24                      1.00   0.01  0.00  0.00  0.06  0.00  0.00  0.92  0.00  0.00
  25                      1.00   0.01  0.00  0.00  0.00  0.00  0.00  0.99  0.00  0.00
  26                      1.00   0.01  0.00  0.00  0.87  0.12  0.00  0.00  0.92  0.00
  27                      1.00   0.01  0.00  0.00  0.99  0.00  0.00  0.00  0.88  0.00
  28                      1.00   0.01  0.00  0.00  0.99  0.00  0.00  0.00  0.00  0.00
  29                      1.00   0.01  0.00  0.00  0.14  0.00  0.00  0.84  0.08  0.00
  30                      1.00   0.01  0.00  0.00  0.05  0.00  0.00  0.94  0.00  0.00
  31                      1.00   0.02  0.00  0.00  0.00  0.00  0.00  0.98  0.00  0.00
  34                      1.00   0.01  0.00  0.00  0.00  0.00  0.00  0.99  0.00  0.00
  35                      1.00   0.01  0.00  0.00  0.99  0.00  0.00  0.00  0.97  0.00
  37                      1.00   0.01  0.00  0.00  0.97  0.01  0.00  0.00  0.96  0.00
  38                      1.00   0.01  0.00  0.00  0.00  0.00  0.00  0.99  0.00  0.00
  41                      1.00   0.01  0.00  0.00  0.14  0.00  0.00  0.84  0.02  0.00
  42                      1.00   0.01  0.00  0.00  0.11  0.00  0.00  0.88  0.00  0.00
  43                      1.00   0.01  0.00  0.00  0.13  0.00  0.00  0.86  0.02  0.00
  44                      1.00   0.01  0.00  0.00  0.09  0.00  0.00  0.90  0.02  0.00
  45                      1.00   0.01  0.00  0.00  0.99  0.00  0.00  0.00  0.89  0.00
  46                      1.00   0.01  0.00  0.00  0.99  0.00  0.00  0.00  0.84  0.00
  47                      1.00   0.01  0.00  0.00  0.09  0.00  0.00  0.90  0.00  0.00
  48                      1.00   0.01  0.00  0.00  0.42  0.57  0.00  0.00  0.01  0.00
  49                      1.00   0.01  0.00  0.00  0.00  0.02  0.00  0.97  0.02  0.00
  50                      1.00   0.01  0.00  0.00  0.99  0.00  0.00  0.00  0.99  0.00
  51                      1.00   0.05  0.00  0.00  0.00  0.00  0.00  0.95  0.00  0.00
  52                      1.00   0.01  0.00  0.00  0.27  0.72  0.00  0.00  0.31  0.00
  53                      1.00   0.01  0.00  0.00  0.12  0.13  0.00  0.74  0.21  0.00
  54                      1.00   0.01  0.00  0.00  0.99  0.00  0.00  0.00  0.99  0.00
  55                      1.00   0.01  0.00  0.00  0.00  0.00  0.00  0.99  0.00  0.00
  64                      1.00   0.01  0.00  0.00  0.00  0.00  0.00  0.99  0.00  0.00
  65                      1.00   0.01  0.00  0.00  0.11  0.88  0.00  0.00  0.86  0.00
  66                      1.00   0.01  0.00  0.00  0.14  0.85  0.00  0.00  0.01  0.00
  68                      1.00   0.01  0.00  0.00  0.99  0.00  0.00  0.00  0.88  0.00
  69                      1.00   0.01  0.00  0.00  0.09  0.00  0.00  0.90  0.00  0.00
  70                      1.00   0.01  0.00  0.00  0.98  0.01  0.00  0.00  0.78  0.00
  71                      1.00   0.01  0.00  0.00  0.99  0.00  0.00  0.00  0.81  0.00
  72                      1.00   0.01  0.00  0.00  0.98  0.01  0.00  0.00  0.84  0.00
  32                      1.00   0.01  0.00  0.00  0.99  0.00  0.00  0.00  0.01  0.00
  
  
  *************************
  Conduit Surcharge Summary
  *************************
  
  ----------------------------------------------------------------------------
                                                           Hours        Hours 
                         --------- Hours Full --------   Above Full   Capacity
  Conduit                Both Ends  Upstream  Dnstream   Normal Flow   Limited
  ----------------------------------------------------------------------------
  4                           0.01      0.12      0.01      0.16         0.01
  5                           0.01      0.01      0.12      0.01         0.01
  6                           0.08      0.08      0.12      0.06         0.05
  7                           0.08      0.15      0.08      0.42         0.08
  8                           0.15      0.20      0.15      0.26         0.15
  9                           0.01      0.01      0.15      0.01         0.01
  11                          0.01      0.16      0.01      0.33         0.01
  12                          0.16      0.18      0.16      0.32         0.16
  13                          0.18      0.18      0.18      0.31         0.17
  14                          0.08      0.08      0.21      0.01         0.01
  15                          0.01      0.01      0.08      0.01         0.01
  20                          0.17      0.18      0.18      0.29         0.17
  21                          0.18      0.19      0.18      0.30         0.17
  22                          0.19      0.20      0.19      0.29         0.18
  23                          0.17      0.17      0.20      0.04         0.01
  24                          0.17      0.18      0.17      0.27         0.15
  25                          0.01      0.24      0.01      0.30         0.01
  26                          0.19      0.19      0.24      0.13         0.13
  27                          0.16      0.16      0.18      0.03         0.01
  28                          0.16      0.17      0.16      0.24         0.14
  29                          0.27      0.27      0.34      0.05         0.05
  30                          0.19      0.34      0.19      0.40         0.19
  31                          0.01      0.19      0.01      0.26         0.01
  35                          0.01      0.01      0.09      0.01         0.01
  41                          0.70      0.70      0.81      0.32         0.29
  42                          0.70      1.06      0.70      0.66         0.25
  43                          0.57      0.57      0.70      0.01         0.01
  44                          0.35      0.35      0.50      0.13         0.14
  45                          0.50      0.50      0.70      0.01         0.01
  46                          0.70      0.70      0.81      0.65         0.64
  47                          0.46      0.81      0.46      0.88         0.46
  48                          0.01      0.46      0.01      0.51         0.01
  49                          0.01      0.01      0.09      0.01         0.01
  52                          0.09      0.09      0.15      0.01         0.01
  53                          0.15      0.15      0.28      0.01         0.01
  64                          0.01      0.99      0.01      1.06         0.01
  65                          0.56      0.56      0.99      0.01         0.01
  66                          0.56      0.82      0.56      0.79         0.56
  68                          0.59      0.59      0.82      0.01         0.01
  69                          0.59      1.13      0.59      0.84         0.24
  70                          1.08      1.08      1.13      0.64         0.57
  71                          1.00      1.00      1.08      0.36         0.37
  72                          0.88      0.88      1.00      0.01         0.01
  

  Analysis begun on:  Fri Mar 09 15:35:26 2018
  Analysis ended on:  Fri Mar 09 15:35:27 2018
  Total elapsed time: 00:00:01