
  EPA STORM WATER MANAGEMENT MODEL - VERSION 5.1 (Build 5.1.012)
  --------------------------------------------------------------

  EXAMPLE USER2 
  
  WARNING 02: maximum depth increased for Node TW07010
  
  *************
  Element Count
  *************
  Number of rain gages ...... 1
  Number of subcatchments ... 17
  Number of nodes ........... 72
  Number of links ........... 102
  Number of pollutants ...... 0
  Number of land uses ....... 0
  
  
  ****************
  Raingage Summary
  ****************
                                                      Data       Recording
  Name                 Data Source                    Type       Interval 
  ------------------------------------------------------------------------
  GAGE1                RainSeries1                    INTENSITY   15 min.
  
  
  ********************
  Subcatchment Summary
  ********************
  Name                       Area     Width   %Imperv    %Slope Rain Gage            Outlet              
  -----------------------------------------------------------------------------------------------------------
  SubCatchTW01060          175.61   5604.00      3.40    4.2100 GAGE1                TW01060             
  SubCatchTW01100          196.36   6929.00     11.50    4.1200 GAGE1                TW01100             
  SubCatchTW01160           46.56   2839.00      3.40    3.1000 GAGE1                TW01160             
  SubCatchTW01200          205.84   6680.00     47.30    1.6000 GAGE1                TW01200             
  SubCatchTW01340          367.94  16508.00     45.40    1.1500 GAGE1                TW01340             
  SubCatchTW01390          136.26   4597.00     65.30    1.0000 GAGE1                TW01390             
  TW02010A                 160.01   5353.00     33.50    2.4200 GAGE1                TW02010             
  TW02010B                  50.00   5353.00     33.50    2.4200 GAGE1                TW01140             
  SubCatchTW03010           81.48   2003.00     40.30    1.8900 GAGE1                TW03010             
  SubCatchTW04050          117.97   7026.00     21.10    2.2200 GAGE1                TW04050             
  SubCatchTW04120          134.60   4549.00     40.00    0.9800 GAGE1                TW04120             
  SubCatchTW05010           82.62   3698.00     30.50    1.1200 GAGE1                TW05010             
  SubCatchTW06010           89.36   2621.00     27.70    1.1000 GAGE1                TW06010             
  SubCatchTW07030           47.28   3895.00     55.20    1.3100 GAGE1                TW07030             
  SubCatchTW07090          105.43   1386.00     53.80    0.9000 GAGE1                TW07090             
  SubCatchTW08010          119.51   4232.00     30.30    0.9900 GAGE1                TW08010             
  SubCatchTW09010          138.13   9638.00     49.10    0.7600 GAGE1                TW09010             
  
  
  ************
  Node Summary
  ************
                                           Invert      Max.    Ponded    External
  Name                 Type                 Elev.     Depth      Area    Inflow  
  -------------------------------------------------------------------------------
  TW01020              JUNCTION            661.10     98.90       0.0
  TW01040              JUNCTION            686.80     99.20       0.0
  TW01050              JUNCTION            709.00     99.00       0.0
  TW01060              JUNCTION            724.00     99.00       0.0
  TW01070              JUNCTION            745.00     99.00       0.0
  TW01080              JUNCTION            772.90     99.10       0.0
  TW01090              JUNCTION            792.50     99.50       0.0
  TW01100              JUNCTION            793.00     99.00       0.0
  TW01110              JUNCTION            819.40     98.60       0.0
  TW01120              JUNCTION            832.00     99.00       0.0
  TW01130              JUNCTION            838.00     99.00       0.0
  TW01140              JUNCTION            839.40     98.60       0.0
  TW01150              JUNCTION            843.90     99.10       0.0
  TW01160              JUNCTION            853.20     98.80       0.0
  TW01170              JUNCTION            862.00     99.00       0.0
  TW01180              JUNCTION            871.60     99.40       0.0
  TW01210              JUNCTION            881.00     99.00       0.0
  TW01250              JUNCTION            888.00     99.00       0.0
  TW01260              JUNCTION            889.00     99.00       0.0
  TW01270              JUNCTION            889.30     98.70       0.0
  TW01280              JUNCTION            889.50     99.50       0.0
  TW01290              JUNCTION            897.60     99.40       0.0
  TW01300              JUNCTION            898.80     99.20       0.0
  TW01310              JUNCTION            899.00     99.00       0.0
  TW01320              JUNCTION            908.00     99.00       0.0
  TW01330              JUNCTION            908.50     99.50       0.0
  TW01340              JUNCTION            911.50     99.50       0.0
  TW02005              JUNCTION            916.00     99.00       0.0
  TW03010              JUNCTION            906.00     99.00       0.0
  TW04010              JUNCTION            875.00     99.00       0.0
  TW04020              JUNCTION            878.00     99.00       0.0
  TW04030              JUNCTION            893.80     99.20       0.0
  TW04040              JUNCTION            907.00     99.00       0.0
  TW04050              JUNCTION            912.00     99.00       0.0
  TW04060              JUNCTION            914.00     99.00       0.0
  TW04070              JUNCTION            927.40     98.60       0.0
  TW04080              JUNCTION            933.00     99.00       0.0
  TW04090              JUNCTION            943.00     99.00       0.0
  TW04110              JUNCTION            960.00     99.00       0.0
  TW04120              JUNCTION            979.40     98.60       0.0
  TW07010              JUNCTION            889.50    118.50       0.0
  TW07020              JUNCTION            904.00     99.00       0.0
  TW07030              JUNCTION            919.00     99.00       0.0
  TW01010              OUTFALL             660.10     11.70       0.0
  TW01190              STORAGE             880.00     99.00       0.0
  TW01355              STORAGE             950.00     99.00       0.0
  TW01357              STORAGE             955.00     99.00       0.0
  TW01200              STORAGE             882.40     98.60       0.0
  TW01220              STORAGE             881.20     98.80       0.0
  TW01230              STORAGE             880.00     99.00       0.0
  TW01240              STORAGE             880.20     98.80       0.0
  TW01350              STORAGE             949.80     99.20       0.0
  TW01360              STORAGE             965.00     99.00       0.0
  TW01370              STORAGE             976.00     99.00       0.0
  TW01380              STORAGE             987.00     99.00       0.0
  TW01385              STORAGE             999.00     99.00       0.0
  TW01390              STORAGE            1014.00     99.00       0.0
  TW02010              STORAGE             935.00     99.00       0.0
  TW04065              STORAGE             916.00     99.00       0.0
  TW04100              STORAGE             954.50     99.50       0.0
  TW05010              STORAGE             942.00     99.00       0.0
  TW06005              STORAGE             944.00     99.00       0.0
  TW06010              STORAGE             988.00     99.00       0.0
  TW07040              STORAGE             933.00     99.00       0.0
  TW07050              STORAGE             966.00     99.00       0.0
  TW07060              STORAGE             980.00     99.00       0.0
  TW07070              STORAGE             981.50     99.50       0.0
  TW07080              STORAGE             988.00     99.00       0.0
  TW07090              STORAGE             997.00     99.00       0.0
  TW08005              STORAGE             932.00     99.00       0.0
  TW08010              STORAGE             946.50     99.50       0.0
  TW09010              STORAGE             986.00     99.00       0.0
  
  
  ************
  Link Summary
  ************
  Name             From Node        To Node          Type            Length    %Slope Roughness
  ---------------------------------------------------------------------------------------------
  TW01130          TW01130          TW01120          CONDUIT          267.0    0.8989    0.0150
  TW01200          TW01200          TW01190          CONDUIT          249.0    0.9639    0.0150
  TW01220          TW01220          TW01210          CONDUIT           68.0    0.2941    0.0240
  TW01240          TW01240          TW01230          CONDUIT           35.0    0.5714    0.0240
  TW01260          TW01260          TW01250          CONDUIT           47.0    2.1281    0.0240
  TW01280          TW01280          TW01270          CONDUIT          216.0    0.0926    0.0150
  TW01310          TW01310          TW01300          CONDUIT           79.0    0.2532    0.0240
  TW01330          TW01330          TW01320          CONDUIT           40.0    1.2501    0.0150
  TW01331          TW01330          TW01320          CONDUIT           40.0    1.2501    0.0150
  TW01350          TW01350          TW01340          CONDUIT         1600.0    2.3944    0.0240
  TW01355          TW01355          TW01350          CONDUIT           25.0    0.8000    0.0130
  TW01357          TW01357          TW01355          CONDUIT         1100.0    0.4546    0.0130
  TW01360          TW01360          TW01357          CONDUIT          400.0    2.5008    0.0130
  TW01370          TW01370          TW01357          CONDUIT          600.0    3.5021    0.0130
  TW01380          TW01380          TW01370          CONDUIT         1200.0    0.9167    0.0130
  TW01385          TW01385          TW01380          CONDUIT          900.0    1.3335    0.0130
  TW01390          TW01390          TW01385          CONDUIT         1000.0    1.5002    0.0130
  TW02010          TW02010          TW02005          CONDUIT         2100.0    0.9048    0.0130
  TW04020          TW04020          TW04010          CONDUIT          140.0    0.1429    0.0150
  TW04050          TW04050          TW04040          CONDUIT          196.0    1.5308    0.0240
  TW04065          TW04065          TW04060          CONDUIT          200.0    1.0001    0.0150
  TW04070          TW04070          TW04065          CONDUIT          794.0    1.4359    0.0130
  TW04071          TW04070          TW04065          CONDUIT          794.0    1.4359    0.0130
  TW04100          TW04100          TW04090          CONDUIT          930.0    1.2367    0.0130
  TW04110          TW04110          TW04100          CONDUIT          398.0    1.3820    0.0130
  TW05010          TW05010          TW04080          CONDUIT          470.0    1.9152    0.0130
  TW06005          TW06005          TW04090          CONDUIT          150.0    0.6667    0.0130
  TW06010          TW06010          TW06005          CONDUIT         1812.0    2.4290    0.0130
  TW07010          TW07010          TW01250          CONDUIT           70.0    0.7143    0.0150
  TW07040          TW07040          TW07030          CONDUIT          100.0   14.1393    0.0130
  TW07050          TW07050          TW07040          CONDUIT         1900.0    1.7371    0.0130
  TW07060          TW07060          TW07050          CONDUIT         1100.0    1.2728    0.0130
  TW07070          TW07070          TW07060          CONDUIT          250.0    0.6000    0.0130
  TW07080          TW07080          TW07070          CONDUIT          770.0    0.8442    0.0130
  TW07090          TW07090          TW07080          CONDUIT          780.0    1.1539    0.0130
  TW08010          TW08010          TW08005          CONDUIT          750.0    1.9337    0.0130
  TW08011          TW08010          TW08005          CONDUIT          750.0    1.9337    0.0130
  TW08012          TW08010          TW08005          CONDUIT          750.0    1.9337    0.0130
  TW09010          TW09010          TW01360          CONDUIT         1400.0    1.5002    0.0130
  TW09011          TW09010          TW01360          CONDUIT         1400.0    1.5002    0.0130
  TW01020          TW01020          TW01010          CONDUIT          135.0    0.7408    0.0250
  TW01040          TW01040          TW01020          CONDUIT         1401.0    1.8347    0.0250
  TW01050          TW01050          TW01040          CONDUIT         1449.0    1.5323    0.0250
  TW01060          TW01060          TW01050          CONDUIT         1097.0    1.3675    0.0250
  TW01070          TW01070          TW01060          CONDUIT         1167.0    1.7998    0.0250
  TW01080          TW01080          TW01070          CONDUIT         1182.0    2.3611    0.0250
  TW01090          TW01090          TW01080          CONDUIT         1547.0    1.2671    0.0250
  TW01100          TW01100          TW01090          CONDUIT           21.0    2.3816    0.0250
  TW01110          TW01110          TW01100          CONDUIT         1280.0    2.0629    0.0250
  TW01120          TW01120          TW01110          CONDUIT          881.0    1.4303    0.0250
  TW01140          TW01140          TW01130          CONDUIT          178.0    0.7865    0.0250
  TW01150          TW01150          TW01140          CONDUIT          635.0    0.7087    0.0250
  TW01160          TW01160          TW01150          CONDUIT         1246.0    0.7464    0.0250
  TW01170          TW01170          TW01160          CONDUIT         1044.0    0.8429    0.0250
  TW01180          TW01180          TW01170          CONDUIT          981.0    0.9786    0.0250
  TW01190          TW01190          TW01180          CONDUIT          614.0    1.3682    0.0250
  TW01210          TW01210          TW01200          CONDUIT          403.0   -0.3474    0.0250
  TW01230          TW01230          TW01220          CONDUIT          238.0   -0.5042    0.0250
  TW01250          TW01250          TW01240          CONDUIT          303.0    2.5751    0.0250
  TW01270          TW01270          TW01260          CONDUIT          168.0    0.1786    0.0250
  TW01290          TW01290          TW01280          CONDUIT          544.0    1.4891    0.0250
  TW01300          TW01300          TW01290          CONDUIT          330.0    0.3636    0.0250
  TW01320          TW01320          TW01310          CONDUIT          605.0    1.4878    0.0250
  TW01340          TW01340          TW01330          CONDUIT         1007.0    0.2979    0.0250
  TW02005          TW02005          TW01140          CONDUIT         1100.0    6.9806    0.0450
  TW03010          TW03010          TW01150          CONDUIT         1400.0    4.4401    0.0450
  TW04010          TW04010          TW01170          CONDUIT          963.0    1.3501    0.0250
  TW04030          TW04030          TW04020          CONDUIT          948.0    1.6669    0.0250
  TW04040          TW04040          TW04030          CONDUIT          657.0    2.0095    0.0250
  TW04060          TW04060          TW04050          CONDUIT          353.0    0.5666    0.0250
  TW04080          TW04080          TW04070          CONDUIT          606.0    0.9241    0.0250
  TW04090          TW04090          TW04080          CONDUIT          561.0    1.7828    0.0250
  TW04120          TW04120          TW04110          CONDUIT          975.0    1.9901    0.0250
  TW07020          TW07020          TW07010          CONDUIT          943.0    1.5378    0.0250
  TW07030          TW07030          TW07020          CONDUIT          987.0    1.5199    0.0250
  TW08005          TW08005          TW07030          CONDUIT         1100.0    1.1819    0.0350
  TW01221          TW01220          TW01210          CONDUIT           68.0    0.2941    0.0250
  TW01241          TW01240          TW01230          CONDUIT           35.0    0.5714    0.0250
  TW01261          TW01260          TW01250          CONDUIT           47.0    0.4255    0.0250
  TW01281          TW01280          TW01270          CONDUIT          216.0    0.0926    0.0250
  TW01311          TW01310          TW01300          CONDUIT           79.0    0.2532    0.0250
  TW01332          TW01330          TW01320          CONDUIT           40.0    0.5000    0.0250
  TW04066          TW04065          TW04060          CONDUIT          200.0    0.1000    0.0250
  WEIR1@TW01355-TW01350 TW01355          TW01350          WEIR        
  WEIR2@TW01360-TW01357 TW01360          TW01357          WEIR        
  WEIR3@TW01370-TW01357 TW01370          TW01357          WEIR        
  WEIR4@TW01380-TW01370 TW01380          TW01370          WEIR        
  WEIR5@TW01385-TW01380 TW01385          TW01380          WEIR        
  WEIR6@TW01390-TW01385 TW01390          TW01385          WEIR        
  WEIR7@TW02010-TW02005 TW02010          TW02005          WEIR        
  WEIR8@TW04100-TW04090 TW04100          TW04090          WEIR        
  WEIR9@TW05010-TW04080 TW05010          TW04080          WEIR        
  WEIR10@TW06010-TW06005 TW06010          TW06005          WEIR        
  WEIR11@TW07010-TW01250 TW07010          TW01250          WEIR        
  WEIR12@TW07040-TW07010 TW07040          TW07010          WEIR        
  WEIR13@TW07050-TW07040 TW07050          TW07040          WEIR        
  WEIR14@TW07060-TW07050 TW07060          TW07050          WEIR        
  WEIR15@TW07070-TW07060 TW07070          TW07060          WEIR        
  WEIR16@TW07080-TW07070 TW07080          TW07070          WEIR        
  WEIR17@TW07090-TW07080 TW07090          TW07080          WEIR        
  WEIR18@TW08010-TW08005 TW08010          TW08005          WEIR        
  WEIR19@TW09010-TW01360 TW09010          TW01360          WEIR        
  
  
  *********************
  Cross Section Summary
  *********************
                                        Full     Full     Hyd.     Max.   No. of     Full
  Conduit          Shape               Depth     Area     Rad.    Width  Barrels     Flow
  ---------------------------------------------------------------------------------------
  TW01130          RECT_CLOSED          7.50   157.50     2.76    21.00        1  2912.98
  TW01200          RECT_CLOSED          7.50    55.50     1.86     7.40        1   817.12
  TW01220          CIRCULAR             8.00    50.27     2.00     8.00        1   267.93
  TW01240          CIRCULAR             9.00    63.62     2.25     9.00        1   511.28
  TW01260          CIRCULAR             8.00    50.27     2.00     8.00        1   720.72
  TW01280          CIRCULAR             9.00    63.62     2.25     9.00        1   329.29
  TW01310          ARCH                 6.75    55.00     2.02    10.25        1   273.71
  TW01330          HORIZ_ELLIPSE        6.42    52.40     1.97    10.08        1   911.17
  TW01331          RECT_CLOSED          4.00    16.00     1.00     4.00        1   177.22
  TW01350          CIRCULAR             5.00    19.63     1.25     5.00        1   218.30
  TW01355          CIRCULAR             1.50     1.77     0.38     1.50        1     9.40
  TW01357          CIRCULAR             6.50    33.18     1.63     6.50        1   353.47
  TW01360          CIRCULAR             4.50    15.90     1.13     4.50        1   310.98
  TW01370          CIRCULAR             4.50    15.90     1.13     4.50        1   368.01
  TW01380          CIRCULAR             4.50    15.90     1.13     4.50        1   188.28
  TW01385          CIRCULAR             4.00    12.57     1.00     4.00        1   165.87
  TW01390          CIRCULAR             3.50     9.62     0.88     3.50        1   123.23
  TW02010          CIRCULAR             3.00     7.07     0.75     3.00        1    63.44
  TW04020          CIRCULAR             8.00    50.27     2.00     8.00        1   298.77
  TW04050          CIRCULAR             6.50    33.18     1.63     6.50        1   351.36
  TW04065          RECT_CLOSED          5.00    35.00     1.46     7.00        1   445.91
  TW04070          CIRCULAR             4.50    15.90     1.13     4.50        1   235.64
  TW04071          CIRCULAR             4.50    15.90     1.13     4.50        1   235.64
  TW04100          CIRCULAR             4.00    12.57     1.00     4.00        1   159.74
  TW04110          HORIZ_ELLIPSE        3.17    12.90     0.97     5.00        1   169.75
  TW05010          CIRCULAR             3.00     7.07     0.75     3.00        1    92.31
  TW06005          HORIZ_ELLIPSE        4.00    20.50     1.23     6.33        1   219.53
  TW06010          CIRCULAR             4.00    12.57     1.00     4.00        1   223.87
  TW07010          CIRCULAR             6.00    28.27     1.50     6.00        1   310.21
  TW07040          CIRCULAR             4.50    15.90     1.13     4.50        1   739.44
  TW07050          CIRCULAR             4.50    15.90     1.13     4.50        1   259.18
  TW07060          CIRCULAR             4.00    12.57     1.00     4.00        1   162.06
  TW07070          CIRCULAR             3.00     7.07     0.75     3.00        1    51.66
  TW07080          CIRCULAR             3.00     7.07     0.75     3.00        1    61.28
  TW07090          CIRCULAR             3.00     7.07     0.75     3.00        1    71.65
  TW08010          HORIZ_ELLIPSE        3.58    16.60     1.11     5.67        1   282.19
  TW08011          CIRCULAR             2.50     4.91     0.63     2.50        1    57.04
  TW08012          CIRCULAR             2.00     3.14     0.50     2.00        1    31.46
  TW09010          CIRCULAR             3.50     9.62     0.88     3.50        1   123.23
  TW09011          CIRCULAR             3.50     9.62     0.88     3.50        1   123.23
  TW01020          101020              11.70  3018.12     2.07   878.30        1 25070.41
  TW01040          101040              57.20 15318.79    13.55   388.30        1 701143.73
  TW01050          101050              20.10  3802.71     5.16   270.00        1 83590.90
  TW01060          101060              47.10  6416.56    10.72   200.30        1 216877.16
  TW01070          101070              30.30  4765.68     9.04   224.20        1 164905.59
  TW01080          101080              33.60  5747.58     7.65   244.60        1 203744.49
  TW01090          101090              43.50  6670.84    10.59   236.10        1 215180.31
  TW01100          101101              27.90  5221.35     4.66   388.70        1 133537.36
  TW01110          101110              40.40  8445.56     9.40   303.30        1 321053.02
  TW01120          101120              45.40 11015.87     8.60   377.30        1 328681.55
  TW01140          101140              38.40  5753.15     5.64   303.20        1 96063.46
  TW01150          101150              39.60  7549.29     5.03   340.00        1 110900.87
  TW01160          101160              37.40  9404.55     5.11   359.90        1 143302.54
  TW01170          101170              41.00  9267.77     5.52   332.50        1 158032.77
  TW01180          101180              36.60  6619.87     7.85   249.80        1 153811.82
  TW01190          101190              32.50  6150.36     5.67   270.40        1 135999.07
  TW01210          101210              42.10  7197.53     5.09   322.20        1 74578.91
  TW01230          101230              36.00  6375.83     2.55   560.00        1 50263.42
  TW01250          101250              36.00  6375.83     2.55   560.00        1 113591.31
  TW01270          101270              28.20  2343.24     2.68   264.80        1 11344.00
  TW01290          101290              25.70  5515.19     3.98   354.10        1 100491.28
  TW01300          101300              22.10  1986.80     5.74   143.40        1 22830.88
  TW01320          101320              13.50  1824.87     1.67   309.40        1 18604.46
  TW01340          101340              16.50  5538.41     1.78   534.30        1 26349.96
  TW02005          102005              24.00  1571.00     8.32   134.00        1 56260.78
  TW03010          103010              28.00  2721.00    12.08   181.00        1 99659.35
  TW04010          104010              52.80 11015.58    12.74   384.40        1 415066.46
  TW04030          104030              41.90 10552.28     4.63   525.90        1 224911.38
  TW04040          104040              37.20 10650.93     5.96   571.70        1 294962.80
  TW04060          104060              24.90  6201.03     3.82   530.00        1 67851.27
  TW04080          104080              23.80  5997.88     2.99   468.70        1 71053.82
  TW04090          104090              23.20  5576.61     3.94   574.00        1 110493.99
  TW04120          104120              19.70  6386.56     1.72   697.40        1 76927.41
  TW07020          107020              29.00  5561.58     9.35   329.40        1 181939.74
  TW07030          107030              26.30  2860.76     4.20   279.00        1 54533.27
  TW08005          108005              18.00  1829.00     6.15   173.00        1 28324.55
  TW01221          101221               4.50  2456.75     3.28   745.00        1 17496.93
  TW01241          101241               8.00  1665.00     5.03   329.00        1 21964.68
  TW01261          101261               6.00   767.00     3.95   193.00        1  7426.96
  TW01281          101281               7.50  4725.75     4.34  1085.00        1 22733.24
  TW01311          101311               8.80  2876.09     5.67   504.50        1 27348.47
  TW01332          101332               6.50  2658.25     4.20   630.00        1 29091.13
  TW04066          104066               6.50  2857.50     3.86   737.00        1 13218.61
  
  
  
  ****************
  Transect Summary
  ****************

  Transect 101020
  Area:  
              0.0007     0.0026     0.0048     0.0071     0.0095 
              0.0121     0.0148     0.0177     0.0208     0.0239 
              0.0273     0.0308     0.0344     0.0382     0.0421 
              0.0463     0.0516     0.0587     0.0674     0.0773 
              0.0882     0.0999     0.1126     0.1261     0.1406 
              0.1559     0.1719     0.1888     0.2064     0.2249 
              0.2441     0.2650     0.2881     0.3146     0.3444 
              0.3783     0.4134     0.4495     0.4866     0.5248 
              0.5639     0.6041     0.6453     0.6876     0.7317 
              0.7780     0.8262     0.8772     0.9351     1.0000 
  Hrad:  
              0.0566     0.1449     0.2406     0.3332     0.4211 
              0.5051     0.5859     0.6639     0.7395     0.8131 
              0.8850     0.9554     1.0244     1.0923     1.1591 
              1.2237     1.2495     1.2713     1.2633     1.2496 
              1.2368     1.2251     1.2149     1.2059     1.1997 
              1.1968     1.1960     1.1966     1.1983     1.2020 
              1.2077     1.2085     1.2026     1.1858     1.1586 
              1.1292     1.1132     1.1024     1.0957     1.0922 
              1.0913     1.0925     1.0954     1.0925     1.0815 
              1.0727     1.0657     1.0345     1.0184     1.0000 
  Width: 
              0.0217     0.0299     0.0326     0.0348     0.0370 
              0.0392     0.0414     0.0435     0.0457     0.0479 
              0.0501     0.0523     0.0545     0.0567     0.0589 
              0.0661     0.0903     0.1163     0.1391     0.1524 
              0.1657     0.1791     0.1925     0.2062     0.2184 
              0.2298     0.2412     0.2532     0.2654     0.2767 
              0.2915     0.3225     0.3587     0.4139     0.4626 
              0.5077     0.5226     0.5376     0.5526     0.5675 
              0.5825     0.5974     0.6124     0.6336     0.6637 
              0.6938     0.7239     0.7942     0.9048     1.0000 

  Transect 101040
  Area:  
              0.0005     0.0019     0.0043     0.0075     0.0116 
              0.0179     0.0274     0.0402     0.0550     0.0704 
              0.0862     0.1025     0.1193     0.1365     0.1542 
              0.1724     0.1910     0.2101     0.2296     0.2495 
              0.2698     0.2904     0.3114     0.3328     0.3546 
              0.3767     0.3991     0.4218     0.4448     0.4681 
              0.4917     0.5157     0.5399     0.5645     0.5893 
              0.6146     0.6401     0.6660     0.6922     0.7188 
              0.7457     0.7729     0.8005     0.8285     0.8567 
              0.8851     0.9136     0.9423     0.9711     1.0000 
  Hrad:  
              0.0414     0.0836     0.1276     0.1704     0.2220 
              0.2576     0.2595     0.2543     0.2585     0.2725 
              0.2903     0.3098     0.3300     0.3504     0.3708 
              0.3910     0.4110     0.4306     0.4508     0.4709 
              0.4907     0.5102     0.5295     0.5485     0.5673 
              0.5865     0.6054     0.6240     0.6425     0.6607 
              0.6788     0.6966     0.7142     0.7315     0.7484 
              0.7651     0.7817     0.7980     0.8141     0.8299 
              0.8454     0.8607     0.8758     0.8908     0.9083 
              0.9267     0.9450     0.9634     0.9817     1.0000 
  Width: 
              0.0336     0.0660     0.0957     0.1251     0.1685 
              0.2693     0.3888     0.4883     0.5218     0.5379 
              0.5540     0.5700     0.5861     0.6022     0.6183 
              0.6344     0.6505     0.6666     0.6798     0.6926 
              0.7054     0.7182     0.7310     0.7438     0.7562 
              0.7669     0.7776     0.7882     0.7989     0.8096 
              0.8202     0.8309     0.8415     0.8524     0.8639 
              0.8753     0.8868     0.8982     0.9097     0.9215 
              0.9336     0.9458     0.9580     0.9702     0.9766 
              0.9813     0.9860     0.9906     0.9953     1.0000 

  Transect 101050
  Area:  
              0.0011     0.0039     0.0083     0.0139     0.0209 
              0.0293     0.0389     0.0495     0.0612     0.0753 
              0.0918     0.1089     0.1266     0.1448     0.1635 
              0.1827     0.2021     0.2218     0.2418     0.2621 
              0.2826     0.3035     0.3246     0.3460     0.3677 
              0.3897     0.4119     0.4344     0.4573     0.4804 
              0.5037     0.5274     0.5514     0.5756     0.6001 
              0.6249     0.6500     0.6753     0.7010     0.7268 
              0.7529     0.7793     0.8059     0.8329     0.8601 
              0.8875     0.9153     0.9433     0.9716     1.0000 
  Hrad:  
              0.0440     0.0795     0.1373     0.1907     0.2281 
              0.2550     0.2771     0.2992     0.3160     0.3170 
              0.3255     0.3386     0.3535     0.3695     0.3860 
              0.4041     0.4229     0.4420     0.4611     0.4803 
              0.4995     0.5186     0.5376     0.5564     0.5751 
              0.5936     0.6120     0.6301     0.6481     0.6660 
              0.6836     0.7011     0.7184     0.7355     0.7525 
              0.7693     0.7859     0.8024     0.8196     0.8369 
              0.8538     0.8702     0.8865     0.9027     0.9187 
              0.9346     0.9504     0.9660     0.9830     1.0000 
  Width: 
              0.0661     0.1315     0.1752     0.2213     0.2675 
              0.3170     0.3553     0.3848     0.4313     0.5630 
              0.5931     0.6109     0.6287     0.6466     0.6644 
              0.6756     0.6855     0.6954     0.7053     0.7152 
              0.7251     0.7350     0.7449     0.7549     0.7648 
              0.7747     0.7846     0.7945     0.8044     0.8143 
              0.8242     0.8341     0.8440     0.8539     0.8638 
              0.8737     0.8836     0.8935     0.9020     0.9104 
              0.9190     0.9287     0.9383     0.9480     0.9576 
              0.9673     0.9769     0.9866     0.9933     1.0000 

  Transect 101060
  Area:  
              0.0010     0.0041     0.0088     0.0144     0.0210 
              0.0284     0.0370     0.0470     0.0584     0.0713 
              0.0857     0.1007     0.1163     0.1323     0.1488 
              0.1657     0.1831     0.2010     0.2194     0.2383 
              0.2576     0.2774     0.2976     0.3183     0.3395 
              0.3612     0.3833     0.4060     0.4290     0.4526 
              0.4766     0.5011     0.5261     0.5515     0.5773 
              0.6037     0.6304     0.6576     0.6853     0.7133 
              0.7415     0.7698     0.7981     0.8266     0.8551 
              0.8837     0.9126     0.9415     0.9707     1.0000 
  Hrad:  
              0.0433     0.0866     0.1569     0.2119     0.2561 
              0.2918     0.3190     0.3382     0.3526     0.3640 
              0.3752     0.3913     0.4089     0.4273     0.4459 
              0.4646     0.4832     0.5017     0.5199     0.5378 
              0.5554     0.5728     0.5898     0.6065     0.6230 
              0.6391     0.6549     0.6705     0.6858     0.7009 
              0.7157     0.7303     0.7448     0.7591     0.7732 
              0.7871     0.8008     0.8143     0.8277     0.8433 
              0.8595     0.8757     0.8919     0.9080     0.9240 
              0.9397     0.9550     0.9701     0.9851     1.0000 
  Width: 
              0.0691     0.1381     0.1766     0.2070     0.2374 
              0.2716     0.3143     0.3641     0.4140     0.4639 
              0.5044     0.5204     0.5365     0.5526     0.5686 
              0.5846     0.6007     0.6167     0.6327     0.6488 
              0.6648     0.6808     0.6968     0.7129     0.7289 
              0.7449     0.7610     0.7770     0.7930     0.8091 
              0.8251     0.8410     0.8564     0.8718     0.8872 
              0.9025     0.9179     0.9333     0.9487     0.9556 
              0.9595     0.9627     0.9659     0.9691     0.9723 
              0.9767     0.9825     0.9884     0.9942     1.0000 

  Transect 101070
  Area:  
              0.0009     0.0034     0.0076     0.0133     0.0200 
              0.0281     0.0375     0.0484     0.0606     0.0744 
              0.0895     0.1061     0.1237     0.1418     0.1601 
              0.1787     0.1977     0.2170     0.2366     0.2566 
              0.2768     0.2974     0.3183     0.3396     0.3611 
              0.3830     0.4052     0.4277     0.4505     0.4737 
              0.4971     0.5209     0.5451     0.5695     0.5943 
              0.6193     0.6447     0.6705     0.6965     0.7229 
              0.7496     0.7766     0.8039     0.8315     0.8592 
              0.8871     0.9151     0.9433     0.9716     1.0000 
  Hrad:  
              0.0332     0.0665     0.1016     0.1450     0.2009 
              0.2430     0.2743     0.2982     0.3170     0.3324 
              0.3453     0.3565     0.3707     0.3876     0.4056 
              0.4242     0.4431     0.4622     0.4812     0.5002 
              0.5191     0.5379     0.5564     0.5747     0.5928 
              0.6107     0.6283     0.6457     0.6628     0.6797 
              0.6964     0.7129     0.7291     0.7451     0.7609 
              0.7765     0.7918     0.8070     0.8220     0.8367 
              0.8513     0.8657     0.8799     0.8969     0.9142 
              0.9314     0.9486     0.9658     0.9829     1.0000 
  Width: 
              0.0597     0.1193     0.1750     0.2166     0.2594 
              0.3061     0.3558     0.4056     0.4558     0.5061 
              0.5564     0.6067     0.6262     0.6375     0.6487 
              0.6600     0.6713     0.6825     0.6938     0.7051 
              0.7164     0.7276     0.7389     0.7502     0.7615 
              0.7727     0.7840     0.7953     0.8066     0.8178 
              0.8291     0.8404     0.8516     0.8629     0.8742 
              0.8855     0.8967     0.9080     0.9193     0.9306 
              0.9418     0.9531     0.9646     0.9700     0.9750 
              0.9800     0.9850     0.9900     0.9950     1.0000 

  Transect 101080
  Area:  
              0.0017     0.0061     0.0112     0.0169     0.0232 
              0.0302     0.0377     0.0457     0.0548     0.0662 
              0.0787     0.0930     0.1096     0.1271     0.1451 
              0.1636     0.1825     0.2017     0.2215     0.2416 
              0.2622     0.2831     0.3045     0.3264     0.3486 
              0.3713     0.3944     0.4179     0.4418     0.4662 
              0.4909     0.5159     0.5411     0.5665     0.5921 
              0.6179     0.6440     0.6702     0.6966     0.7233 
              0.7501     0.7771     0.8044     0.8317     0.8593 
              0.8871     0.9150     0.9432     0.9715     1.0000 
  Hrad:  
              0.0437     0.1131     0.1834     0.2438     0.2962 
              0.3421     0.3829     0.4197     0.4412     0.4521 
              0.4610     0.4642     0.4585     0.4624     0.4703 
              0.4807     0.4926     0.5055     0.5190     0.5329 
              0.5470     0.5613     0.5757     0.5900     0.6044 
              0.6186     0.6328     0.6469     0.6609     0.6747 
              0.6897     0.7060     0.7224     0.7388     0.7553 
              0.7717     0.7881     0.8045     0.8209     0.8374 
              0.8539     0.8704     0.8868     0.9032     0.9195 
              0.9357     0.9519     0.9680     0.9840     1.0000 
  Width: 
              0.1180     0.1693     0.1900     0.2107     0.2314 
              0.2521     0.2722     0.2920     0.3787     0.4185 
              0.4583     0.5418     0.6030     0.6219     0.6379 
              0.6526     0.6673     0.6821     0.6968     0.7116 
              0.7263     0.7410     0.7558     0.7705     0.7852 
              0.8000     0.8147     0.8295     0.8442     0.8589 
              0.8700     0.8773     0.8846     0.8919     0.8992 
              0.9065     0.9138     0.9211     0.9284     0.9351 
              0.9416     0.9481     0.9546     0.9611     0.9676 
              0.9741     0.9805     0.9870     0.9935     1.0000 

  Transect 101090
  Area:  
              0.0011     0.0046     0.0100     0.0169     0.0246 
              0.0332     0.0427     0.0531     0.0643     0.0763 
              0.0899     0.1041     0.1187     0.1339     0.1495 
              0.1657     0.1824     0.1996     0.2173     0.2354 
              0.2541     0.2733     0.2930     0.3132     0.3339 
              0.3551     0.3769     0.3991     0.4218     0.4450 
              0.4688     0.4929     0.5176     0.5427     0.5683 
              0.5943     0.6208     0.6477     0.6751     0.7030 
              0.7313     0.7601     0.7893     0.8188     0.8485 
              0.8784     0.9085     0.9388     0.9693     1.0000 
  Hrad:  
              0.0406     0.0842     0.1395     0.1938     0.2395 
              0.2787     0.3127     0.3425     0.3688     0.3923 
              0.4083     0.4277     0.4473     0.4669     0.4862 
              0.5052     0.5237     0.5419     0.5596     0.5768 
              0.5937     0.6101     0.6262     0.6419     0.6572 
              0.6721     0.6868     0.7011     0.7151     0.7288 
              0.7425     0.7562     0.7696     0.7828     0.7958 
              0.8087     0.8213     0.8337     0.8460     0.8580 
              0.8700     0.8817     0.8938     0.9088     0.9240 
              0.9392     0.9544     0.9697     0.9849     1.0000 
  Width: 
              0.0743     0.1470     0.2028     0.2380     0.2659 
              0.2939     0.3218     0.3498     0.3777     0.4060 
              0.4514     0.4678     0.4842     0.5006     0.5169 
              0.5333     0.5497     0.5661     0.5824     0.5988 
              0.6152     0.6316     0.6479     0.6643     0.6807 
              0.6971     0.7134     0.7298     0.7462     0.7626 
              0.7780     0.7929     0.8078     0.8227     0.8377 
              0.8526     0.8675     0.8824     0.8973     0.9122 
              0.9272     0.9421     0.9559     0.9621     0.9682 
              0.9744     0.9806     0.9867     0.9932     1.0000 

  Transect 101101
  Area:  
              0.0006     0.0025     0.0052     0.0081     0.0112 
              0.0145     0.0178     0.0214     0.0251     0.0289 
              0.0330     0.0372     0.0415     0.0461     0.0508 
              0.0556     0.0607     0.0659     0.0714     0.0795 
              0.0892     0.0998     0.1113     0.1240     0.1395 
              0.1582     0.1790     0.2018     0.2256     0.2516 
              0.2797     0.3094     0.3404     0.3728     0.4063 
              0.4410     0.4772     0.5150     0.5540     0.5933 
              0.6328     0.6727     0.7128     0.7532     0.7939 
              0.8349     0.8760     0.9172     0.9585     1.0000 
  Hrad:  
              0.0586     0.1171     0.2138     0.3116     0.4038 
              0.4912     0.5744     0.6540     0.7305     0.8029 
              0.8728     0.9409     1.0073     1.0724     1.1361 
              1.1987     1.2905     1.3910     1.4813     1.5005 
              1.4912     1.4762     1.4565     1.4323     1.3772 
              1.3086     1.2450     1.1819     1.1407     1.1007 
              1.0637     1.0324     1.0067     0.9851     0.9678 
              0.9540     0.9394     0.9292     0.9129     0.9123 
              0.9142     0.9182     0.9239     0.9309     0.9391 
              0.9492     0.9608     0.9732     0.9863     1.0000 
  Width: 
              0.0299     0.0599     0.0682     0.0722     0.0760 
              0.0797     0.0835     0.0872     0.0909     0.0949 
              0.0990     0.1030     0.1071     0.1111     0.1152 
              0.1192     0.1232     0.1272     0.1538     0.2218 
              0.2441     0.2664     0.2919     0.3183     0.4253 
              0.4744     0.5259     0.5619     0.5967     0.6556 
              0.6958     0.7318     0.7625     0.7943     0.8214 
              0.8484     0.8881     0.9281     0.9425     0.9492 
              0.9560     0.9627     0.9695     0.9763     0.9830 
              0.9875     0.9906     0.9937     0.9969     1.0000 

  Transect 101110
  Area:  
              0.0006     0.0024     0.0056     0.0096     0.0149 
              0.0207     0.0267     0.0330     0.0395     0.0485 
              0.0610     0.0765     0.0948     0.1147     0.1349 
              0.1553     0.1760     0.1970     0.2182     0.2397 
              0.2614     0.2834     0.3056     0.3280     0.3507 
              0.3737     0.3969     0.4203     0.4440     0.4679 
              0.4921     0.5166     0.5412     0.5662     0.5914 
              0.6168     0.6425     0.6685     0.6946     0.7211 
              0.7478     0.7747     0.8019     0.8294     0.8571 
              0.8850     0.9135     0.9422     0.9710     1.0000 
  Hrad:  
              0.0441     0.0835     0.1250     0.1971     0.2482 
              0.2974     0.3459     0.3927     0.4375     0.4510 
              0.4366     0.4168     0.3887     0.3858     0.3920 
              0.4028     0.4164     0.4319     0.4485     0.4659 
              0.4840     0.5024     0.5211     0.5399     0.5588 
              0.5777     0.5966     0.6154     0.6341     0.6528 
              0.6713     0.6898     0.7081     0.7263     0.7443 
              0.7622     0.7800     0.7977     0.8152     0.8326 
              0.8498     0.8669     0.8839     0.9007     0.9174 
              0.9340     0.9477     0.9651     0.9826     1.0000 
  Width: 
              0.0409     0.0851     0.1289     0.1606     0.1944 
              0.2031     0.2119     0.2206     0.2293     0.3799 
              0.4824     0.5848     0.6683     0.6916     0.7004 
              0.7092     0.7180     0.7268     0.7356     0.7444 
              0.7528     0.7612     0.7696     0.7780     0.7864 
              0.7948     0.8034     0.8120     0.8207     0.8293 
              0.8379     0.8466     0.8552     0.8638     0.8724 
              0.8811     0.8897     0.8983     0.9070     0.9156 
              0.9242     0.9328     0.9415     0.9501     0.9587 
              0.9674     0.9871     0.9914     0.9957     1.0000 

  Transect 101120
  Area:  
              0.0013     0.0035     0.0061     0.0091     0.0125 
              0.0183     0.0281     0.0402     0.0549     0.0700 
              0.0853     0.1009     0.1166     0.1327     0.1491 
              0.1657     0.1827     0.1999     0.2174     0.2352 
              0.2534     0.2719     0.2907     0.3099     0.3294 
              0.3492     0.3694     0.3901     0.4116     0.4340 
              0.4571     0.4810     0.5055     0.5309     0.5578 
              0.5853     0.6133     0.6416     0.6702     0.6991 
              0.7283     0.7577     0.7873     0.8171     0.8470 
              0.8772     0.9076     0.9382     0.9690     1.0000 
  Hrad:  
              0.0639     0.1518     0.2381     0.3065     0.3618 
              0.3442     0.3019     0.2775     0.2687     0.2781 
              0.2941     0.3127     0.3326     0.3534     0.3745 
              0.3959     0.4173     0.4386     0.4598     0.4804 
              0.5003     0.5200     0.5394     0.5586     0.5776 
              0.5963     0.6148     0.6305     0.6454     0.6599 
              0.6742     0.6887     0.7028     0.7129     0.7244 
              0.7371     0.7541     0.7725     0.7909     0.8094 
              0.8284     0.8474     0.8664     0.8855     0.9046 
              0.9237     0.9428     0.9619     0.9810     1.0000 
  Width: 
              0.0665     0.0759     0.0898     0.1040     0.1181 
              0.2796     0.3491     0.4384     0.4836     0.4895 
              0.4953     0.5033     0.5125     0.5217     0.5309 
              0.5401     0.5493     0.5584     0.5676     0.5778 
              0.5889     0.5999     0.6110     0.6221     0.6330 
              0.6440     0.6551     0.6785     0.7051     0.7316 
              0.7565     0.7770     0.7976     0.8444     0.8748 
              0.8931     0.9052     0.9153     0.9255     0.9348 
              0.9413     0.9478     0.9544     0.9609     0.9674 
              0.9739     0.9804     0.9870     0.9935     1.0000 

  Transect 101140
  Area:  
              0.0003     0.0011     0.0024     0.0043     0.0064 
              0.0090     0.0119     0.0152     0.0189     0.0233 
              0.0287     0.0351     0.0425     0.0509     0.0603 
              0.0708     0.0825     0.0954     0.1096     0.1255 
              0.1437     0.1639     0.1856     0.2080     0.2309 
              0.2544     0.2786     0.3033     0.3286     0.3545 
              0.3810     0.4081     0.4358     0.4640     0.4929 
              0.5224     0.5525     0.5831     0.6144     0.6462 
              0.6787     0.7117     0.7453     0.7796     0.8144 
              0.8498     0.8860     0.9229     0.9606     1.0000 
  Hrad:  
              0.0606     0.1214     0.1794     0.2577     0.3291 
              0.3950     0.4590     0.5216     0.5889     0.6824 
              0.7417     0.7774     0.7982     0.8099     0.8150 
              0.8144     0.8107     0.8047     0.7958     0.7800 
              0.7615     0.7439     0.7352     0.7334     0.7357 
              0.7407     0.7478     0.7564     0.7662     0.7768 
              0.7881     0.7999     0.8121     0.8246     0.8373 
              0.8502     0.8632     0.8763     0.8894     0.9026 
              0.9157     0.9289     0.9421     0.9552     0.9683 
              0.9813     0.9912     1.0010     1.0122     1.0000 
  Width: 
              0.0129     0.0263     0.0411     0.0498     0.0585 
              0.0677     0.0769     0.0861     0.0969     0.1214 
              0.1459     0.1704     0.1946     0.2187     0.2455 
              0.2744     0.3033     0.3350     0.3703     0.4256 
              0.4752     0.5229     0.5444     0.5591     0.5738 
              0.5885     0.6032     0.6179     0.6326     0.6473 
              0.6620     0.6767     0.6914     0.7061     0.7208 
              0.7355     0.7502     0.7649     0.7796     0.7943 
              0.8090     0.8237     0.8384     0.8531     0.8678 
              0.8827     0.9029     0.9231     0.9427     1.0000 

  Transect 101150
  Area:  
              0.0013     0.0034     0.0060     0.0091     0.0126 
              0.0165     0.0207     0.0252     0.0301     0.0354 
              0.0410     0.0470     0.0533     0.0601     0.0672 
              0.0747     0.0826     0.0909     0.0997     0.1088 
              0.1187     0.1294     0.1423     0.1653     0.1916 
              0.2186     0.2462     0.2743     0.3028     0.3319 
              0.3614     0.3915     0.4223     0.4537     0.4857 
              0.5183     0.5515     0.5849     0.6185     0.6523 
              0.6862     0.7204     0.7547     0.7892     0.8239 
              0.8588     0.8938     0.9290     0.9644     1.0000 
  Hrad:  
              0.1018     0.2279     0.3559     0.4524     0.5321 
              0.6008     0.6608     0.7134     0.7600     0.8015 
              0.8389     0.8727     0.9030     0.9300     0.9546 
              0.9770     0.9975     1.0156     1.0321     1.0452 
              1.0496     1.0492     1.0341     0.8857     0.8296 
              0.7930     0.7697     0.7563     0.7491     0.7465 
              0.7468     0.7490     0.7529     0.7585     0.7651 
              0.7727     0.7827     0.7962     0.8106     0.8258 
              0.8416     0.8579     0.8747     0.8919     0.9093 
              0.9271     0.9451     0.9632     0.9816     1.0000 
  Width: 
              0.0549     0.0662     0.0798     0.0931     0.1030 
              0.1128     0.1227     0.1326     0.1426     0.1526 
              0.1626     0.1726     0.1831     0.1941     0.2050 
              0.2159     0.2271     0.2392     0.2512     0.2657 
              0.2881     0.3137     0.4752     0.7316     0.7477 
              0.7646     0.7804     0.7939     0.8074     0.8209 
              0.8366     0.8539     0.8712     0.8883     0.9053 
              0.9224     0.9347     0.9397     0.9447     0.9498 
              0.9548     0.9598     0.9648     0.9698     0.9748 
              0.9798     0.9849     0.9899     0.9949     1.0000 

  Transect 101160
  Area:  
              0.0011     0.0029     0.0052     0.0078     0.0108 
              0.0154     0.0249     0.0363     0.0481     0.0603 
              0.0730     0.0878     0.1059     0.1244     0.1431 
              0.1623     0.1817     0.2015     0.2216     0.2421 
              0.2629     0.2840     0.3055     0.3273     0.3494 
              0.3719     0.3947     0.4178     0.4413     0.4651 
              0.4892     0.5137     0.5385     0.5636     0.5891 
              0.6149     0.6411     0.6676     0.6944     0.7214 
              0.7486     0.7759     0.8034     0.8310     0.8588 
              0.8867     0.9148     0.9431     0.9715     1.0000 
  Hrad:  
              0.0969     0.2085     0.3274     0.4231     0.5015 
              0.5016     0.3960     0.3547     0.3496     0.3571 
              0.3704     0.3477     0.3542     0.3657     0.3801 
              0.3962     0.4135     0.4314     0.4497     0.4683 
              0.4870     0.5058     0.5245     0.5432     0.5618 
              0.5802     0.5986     0.6168     0.6348     0.6527 
              0.6705     0.6881     0.7055     0.7227     0.7398 
              0.7568     0.7736     0.7902     0.8070     0.8249 
              0.8428     0.8605     0.8783     0.8959     0.9135 
              0.9309     0.9483     0.9656     0.9829     1.0000 
  Width: 
              0.0549     0.0737     0.0856     0.0975     0.1094 
              0.2441     0.3862     0.4054     0.4201     0.4345 
              0.4492     0.6271     0.6387     0.6504     0.6621 
              0.6738     0.6855     0.6972     0.7089     0.7206 
              0.7323     0.7439     0.7556     0.7673     0.7790 
              0.7907     0.8024     0.8141     0.8258     0.8375 
              0.8492     0.8608     0.8725     0.8842     0.8959 
              0.9076     0.9193     0.9310     0.9412     0.9466 
              0.9519     0.9573     0.9626     0.9679     0.9733 
              0.9786     0.9840     0.9893     0.9947     1.0000 

  Transect 101170
  Area:  
              0.0005     0.0016     0.0030     0.0046     0.0066 
              0.0119     0.0194     0.0306     0.0446     0.0605 
              0.0778     0.0958     0.1140     0.1326     0.1514 
              0.1706     0.1900     0.2097     0.2297     0.2500 
              0.2705     0.2914     0.3125     0.3339     0.3555 
              0.3775     0.3998     0.4223     0.4451     0.4682 
              0.4916     0.5153     0.5393     0.5636     0.5882 
              0.6131     0.6385     0.6643     0.6905     0.7171 
              0.7442     0.7717     0.7995     0.8275     0.8557 
              0.8841     0.9127     0.9416     0.9707     1.0000 
  Hrad:  
              0.0718     0.1759     0.2677     0.3519     0.4341 
              0.3497     0.3078     0.2696     0.2609     0.2629 
              0.2712     0.2859     0.3040     0.3239     0.3447 
              0.3660     0.3877     0.4094     0.4310     0.4526 
              0.4740     0.4952     0.5163     0.5371     0.5577 
              0.5781     0.5983     0.6183     0.6380     0.6573 
              0.6765     0.6954     0.7141     0.7325     0.7508 
              0.7672     0.7830     0.7986     0.8140     0.8292 
              0.8443     0.8605     0.8784     0.8962     0.9138 
              0.9314     0.9487     0.9660     0.9831     1.0000 
  Width: 
              0.0310     0.0425     0.0520     0.0612     0.0736 
              0.2208     0.3013     0.4309     0.5137     0.5640 
              0.6059     0.6158     0.6257     0.6356     0.6455 
              0.6554     0.6650     0.6746     0.6842     0.6938 
              0.7034     0.7130     0.7226     0.7322     0.7418 
              0.7514     0.7610     0.7705     0.7801     0.7903 
              0.8004     0.8105     0.8207     0.8308     0.8409 
              0.8548     0.8694     0.8841     0.8988     0.9135 
              0.9281     0.9398     0.9474     0.9549     0.9624 
              0.9699     0.9774     0.9850     0.9925     1.0000 

  Transect 101180
  Area:  
              0.0009     0.0029     0.0054     0.0085     0.0122 
              0.0170     0.0302     0.0463     0.0627     0.0795 
              0.0966     0.1141     0.1319     0.1500     0.1685 
              0.1874     0.2066     0.2261     0.2460     0.2662 
              0.2868     0.3077     0.3289     0.3504     0.3721 
              0.3941     0.4164     0.4389     0.4618     0.4849 
              0.5083     0.5320     0.5561     0.5804     0.6052 
              0.6302     0.6555     0.6810     0.7066     0.7324 
              0.7584     0.7845     0.8109     0.8374     0.8640 
              0.8909     0.9179     0.9451     0.9725     1.0000 
  Hrad:  
              0.0513     0.1168     0.1735     0.2371     0.3111 
              0.3517     0.2624     0.2386     0.2427     0.2562 
              0.2737     0.2932     0.3136     0.3344     0.3555 
              0.3766     0.3975     0.4184     0.4390     0.4595 
              0.4796     0.4998     0.5200     0.5399     0.5597 
              0.5792     0.5986     0.6177     0.6367     0.6554 
              0.6736     0.6916     0.7093     0.7269     0.7442 
              0.7613     0.7791     0.7968     0.8144     0.8318 
              0.8492     0.8664     0.8835     0.9005     0.9174 
              0.9341     0.9508     0.9673     0.9837     1.0000 
  Width: 
              0.0596     0.0808     0.1019     0.1230     0.1437 
              0.3024     0.5764     0.5887     0.6013     0.6138 
              0.6263     0.6387     0.6512     0.6637     0.6762 
              0.6887     0.7011     0.7136     0.7261     0.7386 
              0.7511     0.7618     0.7718     0.7817     0.7917 
              0.8017     0.8116     0.8216     0.8316     0.8415 
              0.8532     0.8650     0.8768     0.8887     0.9005 
              0.9123     0.9189     0.9251     0.9313     0.9376 
              0.9438     0.9501     0.9563     0.9626     0.9688 
              0.9750     0.9813     0.9875     0.9938     1.0000 

  Transect 101190
  Area:  
              0.0010     0.0029     0.0051     0.0077     0.0107 
              0.0162     0.0248     0.0370     0.0522     0.0681 
              0.0847     0.1019     0.1196     0.1375     0.1556 
              0.1740     0.1926     0.2115     0.2306     0.2500 
              0.2697     0.2903     0.3118     0.3342     0.3568 
              0.3797     0.4027     0.4260     0.4495     0.4732 
              0.4971     0.5213     0.5457     0.5702     0.5951 
              0.6202     0.6458     0.6717     0.6979     0.7244 
              0.7510     0.7779     0.8049     0.8322     0.8596 
              0.8873     0.9152     0.9433     0.9715     1.0000 
  Hrad:  
              0.0742     0.1591     0.2337     0.3022     0.3660 
              0.3692     0.3438     0.3152     0.3005     0.3045 
              0.3156     0.3298     0.3470     0.3662     0.3864 
              0.4072     0.4282     0.4493     0.4704     0.4915 
              0.5122     0.5310     0.5392     0.5561     0.5742 
              0.5923     0.6105     0.6286     0.6468     0.6648 
              0.6828     0.7007     0.7185     0.7362     0.7531 
              0.7692     0.7850     0.8006     0.8175     0.8347 
              0.8519     0.8689     0.8858     0.9025     0.9191 
              0.9356     0.9519     0.9681     0.9841     1.0000 
  Width: 
              0.0559     0.0703     0.0843     0.0984     0.1306 
              0.2456     0.3596     0.4940     0.5470     0.5689 
              0.5908     0.6123     0.6224     0.6308     0.6392 
              0.6476     0.6560     0.6644     0.6728     0.6813 
              0.7037     0.7382     0.7716     0.7881     0.7957 
              0.8033     0.8109     0.8185     0.8260     0.8336 
              0.8412     0.8488     0.8564     0.8639     0.8744 
              0.8873     0.9002     0.9131     0.9220     0.9291 
              0.9362     0.9433     0.9504     0.9574     0.9645 
              0.9716     0.9787     0.9858     0.9929     1.0000 

  Transect 101210
  Area:  
              0.0004     0.0017     0.0036     0.0056     0.0078 
              0.0102     0.0129     0.0161     0.0199     0.0243 
              0.0292     0.0347     0.0408     0.0474     0.0546 
              0.0624     0.0708     0.0797     0.0892     0.0992 
              0.1098     0.1211     0.1329     0.1472     0.1645 
              0.1843     0.2049     0.2277     0.2548     0.2854 
              0.3190     0.3531     0.3874     0.4219     0.4566 
              0.4915     0.5265     0.5618     0.5973     0.6329 
              0.6687     0.7048     0.7410     0.7774     0.8140 
              0.8508     0.8878     0.9250     0.9624     1.0000 
  Hrad:  
              0.0781     0.1559     0.2748     0.3855     0.4849 
              0.5683     0.6299     0.7448     0.8281     0.8880 
              0.9314     0.9632     0.9870     1.0051     1.0192 
              1.0307     1.0402     1.0483     1.0555     1.0621 
              1.0681     1.0729     1.0770     1.0306     0.9937 
              0.9608     0.9465     0.8956     0.8629     0.8306 
              0.8073     0.7964     0.7920     0.7924     0.7964 
              0.8030     0.8117     0.8221     0.8337     0.8464 
              0.8599     0.8740     0.8887     0.9039     0.9194 
              0.9351     0.9512     0.9674     0.9836     1.0000 
  Width: 
              0.0225     0.0450     0.0519     0.0562     0.0606 
              0.0661     0.0781     0.0932     0.1083     0.1234 
              0.1385     0.1536     0.1687     0.1838     0.1989 
              0.2140     0.2290     0.2441     0.2592     0.2743 
              0.2897     0.3062     0.3228     0.4231     0.4946 
              0.5432     0.5488     0.6761     0.7647     0.8606 
              0.9022     0.9073     0.9124     0.9175     0.9227 
              0.9278     0.9329     0.9380     0.9432     0.9483 
              0.9534     0.9585     0.9636     0.9688     0.9739 
              0.9790     0.9841     0.9892     0.9946     1.0000 

  Transect 101230
  Area:  
              0.0012     0.0024     0.0038     0.0052     0.0067 
              0.0082     0.0099     0.0117     0.0136     0.0156 
              0.0181     0.0219     0.0269     0.0326     0.0386 
              0.0449     0.0516     0.0586     0.0660     0.0738 
              0.0820     0.0909     0.1011     0.1130     0.1267 
              0.1421     0.1585     0.1756     0.1933     0.2116 
              0.2305     0.2503     0.2714     0.2944     0.3194 
              0.3468     0.3775     0.4112     0.4473     0.4857 
              0.5265     0.5697     0.6152     0.6631     0.7133 
              0.7659     0.8209     0.8782     0.9379     1.0000 
  Hrad:  
              0.2507     0.4556     0.6297     0.7819     0.9183 
              1.0789     1.2690     1.4423     1.5981     1.7319 
              1.8111     1.7453     1.6172     1.5259     1.4702 
              1.4360     1.4140     1.4003     1.3925     1.3892 
              1.3892     1.3830     1.3642     1.3287     1.2857 
              1.1840     1.1640     1.1508     1.1430     1.1417 
              1.1415     1.1317     1.1170     1.0945     1.0755 
              1.0455     1.0208     1.0087     1.0014     0.9957 
              0.9914     0.9883     0.9863     0.9855     0.9856 
              0.9868     0.9888     0.9918     0.9955     1.0000 
  Width: 
              0.0191     0.0204     0.0217     0.0230     0.0243 
              0.0257     0.0273     0.0289     0.0312     0.0337 
              0.0485     0.0701     0.0874     0.0921     0.0973 
              0.1025     0.1084     0.1143     0.1202     0.1261 
              0.1324     0.1504     0.1742     0.2026     0.2301 
              0.2539     0.2645     0.2750     0.2854     0.2939 
              0.3042     0.3234     0.3472     0.3794     0.4115 
              0.4623     0.5117     0.5517     0.5891     0.6264 
              0.6638     0.7011     0.7385     0.7758     0.8132 
              0.8506     0.8879     0.9253     0.9626     1.0000 

  Transect 101250
  Area:  
              0.0012     0.0024     0.0038     0.0052     0.0067 
              0.0082     0.0099     0.0117     0.0136     0.0156 
              0.0181     0.0219     0.0269     0.0326     0.0386 
              0.0449     0.0516     0.0586     0.0660     0.0738 
              0.0820     0.0909     0.1011     0.1130     0.1267 
              0.1421     0.1585     0.1756     0.1933     0.2116 
              0.2305     0.2503     0.2714     0.2944     0.3194 
              0.3468     0.3775     0.4112     0.4473     0.4857 
              0.5265     0.5697     0.6152     0.6631     0.7133 
              0.7659     0.8209     0.8782     0.9379     1.0000 
  Hrad:  
              0.2507     0.4556     0.6297     0.7819     0.9183 
              1.0789     1.2690     1.4423     1.5981     1.7319 
              1.8111     1.7453     1.6172     1.5259     1.4702 
              1.4360     1.4140     1.4003     1.3925     1.3892 
              1.3892     1.3830     1.3642     1.3287     1.2857 
              1.1840     1.1640     1.1508     1.1430     1.1417 
              1.1415     1.1317     1.1170     1.0945     1.0755 
              1.0455     1.0208     1.0087     1.0014     0.9957 
              0.9914     0.9883     0.9863     0.9855     0.9856 
              0.9868     0.9888     0.9918     0.9955     1.0000 
  Width: 
              0.0191     0.0204     0.0217     0.0230     0.0243 
              0.0257     0.0273     0.0289     0.0312     0.0337 
              0.0485     0.0701     0.0874     0.0921     0.0973 
              0.1025     0.1084     0.1143     0.1202     0.1261 
              0.1324     0.1504     0.1742     0.2026     0.2301 
              0.2539     0.2645     0.2750     0.2854     0.2939 
              0.3042     0.3234     0.3472     0.3794     0.4115 
              0.4623     0.5117     0.5517     0.5891     0.6264 
              0.6638     0.7011     0.7385     0.7758     0.8132 
              0.8506     0.8879     0.9253     0.9626     1.0000 

  Transect 101270
  Area:  
              0.0020     0.0049     0.0083     0.0121     0.0165 
              0.0214     0.0268     0.0327     0.0390     0.0459 
              0.0533     0.0612     0.0696     0.0785     0.0880 
              0.0979     0.1083     0.1192     0.1306     0.1426 
              0.1550     0.1679     0.1814     0.1953     0.2098 
              0.2247     0.2402     0.2561     0.2726     0.2895 
              0.3070     0.3250     0.3435     0.3626     0.3821 
              0.4020     0.4238     0.4495     0.4774     0.5067 
              0.5406     0.5840     0.6322     0.6813     0.7313 
              0.7823     0.8345     0.8881     0.9431     1.0000 
  Hrad:  
              0.1653     0.3191     0.4399     0.5371     0.6170 
              0.6839     0.7409     0.7901     0.8333     0.8715 
              0.9058     0.9368     0.9651     0.9913     1.0155 
              1.0382     1.0595     1.0797     1.0989     1.1173 
              1.1349     1.1519     1.1683     1.1842     1.1997 
              1.2148     1.2295     1.2439     1.2581     1.2720 
              1.2855     1.2986     1.3116     1.3245     1.3386 
              1.3526     1.3101     1.2864     1.2768     1.2729 
              1.1318     1.0731     1.0546     1.0470     1.0429 
              1.0395     1.0369     1.0363     1.0372     1.0000 
  Width: 
              0.0410     0.0489     0.0568     0.0647     0.0726 
              0.0805     0.0884     0.0963     0.1042     0.1121 
              0.1200     0.1279     0.1358     0.1437     0.1516 
              0.1595     0.1674     0.1753     0.1832     0.1911 
              0.1990     0.2069     0.2148     0.2227     0.2306 
              0.2385     0.2464     0.2543     0.2622     0.2701 
              0.2783     0.2864     0.2946     0.3027     0.3097 
              0.3168     0.3753     0.4225     0.4496     0.4677 
              0.6275     0.7347     0.7637     0.7776     0.7914 
              0.8097     0.8307     0.8517     0.8728     1.0000 

  Transect 101290
  Area:  
              0.0013     0.0030     0.0051     0.0073     0.0098 
              0.0125     0.0155     0.0187     0.0221     0.0257 
              0.0295     0.0337     0.0389     0.0457     0.0540 
              0.0637     0.0749     0.0876     0.1016     0.1170 
              0.1339     0.1523     0.1723     0.1941     0.2170 
              0.2407     0.2661     0.2942     0.3248     0.3559 
              0.3874     0.4189     0.4505     0.4822     0.5139 
              0.5458     0.5777     0.6097     0.6418     0.6740 
              0.7062     0.7385     0.7709     0.8034     0.8360 
              0.8686     0.9014     0.9342     0.9670     1.0000 
  Hrad:  
              0.0965     0.2017     0.2964     0.3837     0.4657 
              0.5439     0.6334     0.7203     0.8150     0.9180 
              1.0113     1.0911     1.1258     1.1159     1.0820 
              1.0376     0.9906     0.9463     0.9071     0.8721 
              0.8402     0.8120     0.7865     0.7640     0.7505 
              0.7404     0.7246     0.6977     0.6919     0.6908 
              0.6944     0.7018     0.7114     0.7228     0.7357 
              0.7497     0.7646     0.7803     0.7967     0.8136 
              0.8310     0.8488     0.8669     0.8853     0.9040 
              0.9229     0.9419     0.9611     0.9805     1.0000 
  Width: 
              0.0504     0.0575     0.0647     0.0719     0.0790 
              0.0862     0.0930     0.0996     0.1063     0.1130 
              0.1197     0.1388     0.1835     0.2280     0.2726 
              0.3172     0.3618     0.4038     0.4448     0.4888 
              0.5354     0.5820     0.6325     0.6805     0.7074 
              0.7379     0.8007     0.9200     0.9354     0.9481 
              0.9542     0.9566     0.9590     0.9614     0.9638 
              0.9662     0.9686     0.9710     0.9735     0.9759 
              0.9783     0.9807     0.9831     0.9855     0.9879 
              0.9903     0.9928     0.9952     0.9976     1.0000 

  Transect 101300
  Area:  
              0.0012     0.0037     0.0070     0.0111     0.0160 
              0.0219     0.0289     0.0375     0.0474     0.0588 
              0.0717     0.0860     0.1016     0.1184     0.1365 
              0.1580     0.1801     0.2023     0.2248     0.2473 
              0.2700     0.2929     0.3158     0.3390     0.3623 
              0.3857     0.4093     0.4330     0.4569     0.4809 
              0.5050     0.5293     0.5538     0.5784     0.6031 
              0.6280     0.6530     0.6782     0.7035     0.7289 
              0.7545     0.7802     0.8061     0.8321     0.8582 
              0.8845     0.9112     0.9393     0.9688     1.0000 
  Hrad:  
              0.0440     0.0963     0.1418     0.1844     0.2235 
              0.2649     0.3253     0.3668     0.3952     0.4149 
              0.4290     0.4396     0.4487     0.4567     0.4638 
              0.4580     0.4642     0.4740     0.4862     0.5001 
              0.5152     0.5312     0.5478     0.5649     0.5824 
              0.6002     0.6182     0.6363     0.6545     0.6729 
              0.6912     0.7096     0.7280     0.7464     0.7648 
              0.7831     0.8014     0.8197     0.8380     0.8561 
              0.8742     0.8923     0.9103     0.9282     0.9460 
              0.9638     0.9811     0.9964     1.0098     1.0000 
  Width: 
              0.0649     0.0905     0.1160     0.1416     0.1688 
              0.1992     0.2445     0.2898     0.3351     0.3804 
              0.4256     0.4688     0.5081     0.5474     0.5867 
              0.6909     0.6955     0.7001     0.7047     0.7092 
              0.7138     0.7184     0.7230     0.7275     0.7321 
              0.7367     0.7413     0.7458     0.7504     0.7550 
              0.7596     0.7641     0.7687     0.7732     0.7777 
              0.7821     0.7865     0.7909     0.7953     0.7997 
              0.8041     0.8085     0.8129     0.8173     0.8217 
              0.8262     0.8567     0.9032     0.9497     1.0000 

  Transect 101320
  Area:  
              0.0005     0.0017     0.0031     0.0047     0.0065 
              0.0084     0.0105     0.0126     0.0149     0.0174 
              0.0200     0.0227     0.0255     0.0285     0.0316 
              0.0349     0.0387     0.0435     0.0515     0.0626 
              0.0761     0.0909     0.1071     0.1248     0.1441 
              0.1650     0.1875     0.2117     0.2374     0.2648 
              0.2937     0.3243     0.3565     0.3897     0.4234 
              0.4576     0.4922     0.5274     0.5630     0.5992 
              0.6358     0.6729     0.7104     0.7485     0.7876 
              0.8277     0.8689     0.9114     0.9551     1.0000 
  Hrad:  
              0.0997     0.1976     0.3203     0.4320     0.5435 
              0.6485     0.7479     0.8428     0.9341     1.0224 
              1.1082     1.1920     1.2739     1.3543     1.4334 
              1.5284     1.6184     1.6491     1.5492     1.3883 
              1.2514     1.1578     1.0867     1.0301     0.9834 
              0.9449     0.9131     0.8869     0.8652     0.8474 
              0.8328     0.8209     0.8117     0.8143     0.8200 
              0.8279     0.8377     0.8488     0.8611     0.8743 
              0.8881     0.9025     0.9174     0.9316     0.9437 
              0.9557     0.9675     0.9789     0.9901     1.0000 
  Width: 
              0.0191     0.0294     0.0333     0.0373     0.0402 
              0.0431     0.0461     0.0490     0.0519     0.0548 
              0.0577     0.0606     0.0635     0.0664     0.0693 
              0.0766     0.0896     0.1381     0.2087     0.2788 
              0.3081     0.3398     0.3688     0.4040     0.4392 
              0.4744     0.5096     0.5448     0.5800     0.6152 
              0.6504     0.6856     0.7199     0.7306     0.7414 
              0.7521     0.7628     0.7733     0.7839     0.7944 
              0.8050     0.8156     0.8261     0.8406     0.8643 
              0.8879     0.9144     0.9420     0.9685     1.0000 

  Transect 101340
  Area:  
              0.0001     0.0005     0.0010     0.0019     0.0030 
              0.0048     0.0075     0.0107     0.0144     0.0188 
              0.0244     0.0332     0.0453     0.0591     0.0740 
              0.0914     0.1102     0.1300     0.1509     0.1729 
              0.1961     0.2199     0.2443     0.2693     0.2946 
              0.3202     0.3460     0.3720     0.3982     0.4245 
              0.4511     0.4779     0.5048     0.5319     0.5593 
              0.5868     0.6145     0.6425     0.6706     0.6989 
              0.7274     0.7561     0.7851     0.8145     0.8445 
              0.8749     0.9058     0.9369     0.9683     1.0000 
  Hrad:  
              0.0908     0.1815     0.2723     0.3546     0.4399 
              0.4927     0.5108     0.5323     0.5473     0.5599 
              0.5474     0.4883     0.4310     0.4040     0.3931 
              0.3804     0.3804     0.3828     0.3887     0.3963 
              0.4077     0.4238     0.4407     0.4580     0.4748 
              0.4965     0.5186     0.5409     0.5634     0.5859 
              0.6086     0.6313     0.6539     0.6766     0.6992 
              0.7217     0.7442     0.7666     0.7890     0.8112 
              0.8334     0.8554     0.8772     0.8985     0.9194 
              0.9398     0.9599     0.9799     0.9998     1.0000 
  Width: 
              0.0073     0.0145     0.0218     0.0299     0.0429 
              0.0726     0.0912     0.1096     0.1278     0.1455 
              0.2244     0.3304     0.4164     0.4494     0.5073 
              0.5702     0.6060     0.6397     0.6741     0.7108 
              0.7398     0.7572     0.7746     0.7920     0.8008 
              0.8069     0.8130     0.8191     0.8252     0.8313 
              0.8374     0.8435     0.8495     0.8556     0.8617 
              0.8678     0.8739     0.8800     0.8861     0.8922 
              0.8982     0.9043     0.9183     0.9332     0.9481 
              0.9631     0.9738     0.9824     0.9911     1.0000 

  Transect 102005
  Area:  
              0.0019     0.0044     0.0076     0.0114     0.0159 
              0.0210     0.0269     0.0333     0.0405     0.0484 
              0.0570     0.0663     0.0764     0.0872     0.0988 
              0.1111     0.1241     0.1378     0.1523     0.1675 
              0.1835     0.2002     0.2176     0.2357     0.2546 
              0.2742     0.2946     0.3157     0.3375     0.3601 
              0.3836     0.4080     0.4333     0.4594     0.4865 
              0.5145     0.5433     0.5731     0.6038     0.6353 
              0.6678     0.7011     0.7353     0.7705     0.8065 
              0.8434     0.8812     0.9199     0.9595     1.0000 
  Hrad:  
              0.0475     0.0846     0.1175     0.1482     0.1776 
              0.2063     0.2344     0.2622     0.3053     0.3508 
              0.3908     0.4264     0.4584     0.4875     0.5141 
              0.5387     0.5617     0.5832     0.6035     0.6228 
              0.6412     0.6589     0.6759     0.6924     0.7084 
              0.7239     0.7390     0.7539     0.7684     0.7813 
              0.7936     0.8055     0.8172     0.8287     0.8400 
              0.8512     0.8622     0.8731     0.8839     0.8946 
              0.9053     0.9159     0.9265     0.9370     0.9476 
              0.9581     0.9686     0.9790     0.9895     1.0000 
  Width: 
              0.0534     0.0696     0.0857     0.1018     0.1179 
              0.1340     0.1501     0.1663     0.1836     0.2015 
              0.2194     0.2373     0.2552     0.2731     0.2910 
              0.3090     0.3269     0.3448     0.3627     0.3806 
              0.3985     0.4164     0.4343     0.4522     0.4701 
              0.4881     0.5060     0.5239     0.5418     0.5630 
              0.5848     0.6067     0.6285     0.6504     0.6722 
              0.6941     0.7159     0.7378     0.7596     0.7815 
              0.8033     0.8252     0.8470     0.8689     0.8907 
              0.9126     0.9344     0.9563     0.9781     1.0000 

  Transect 103010
  Area:  
              0.0025     0.0060     0.0103     0.0156     0.0215 
              0.0279     0.0350     0.0426     0.0509     0.0598 
              0.0693     0.0795     0.0903     0.1017     0.1138 
              0.1267     0.1403     0.1547     0.1698     0.1857 
              0.2024     0.2198     0.2380     0.2570     0.2767 
              0.2971     0.3184     0.3403     0.3631     0.3866 
              0.4109     0.4359     0.4617     0.4881     0.5151 
              0.5429     0.5712     0.6003     0.6300     0.6603 
              0.6913     0.7230     0.7553     0.7883     0.8220 
              0.8563     0.8912     0.9268     0.9631     1.0000 
  Hrad:  
              0.0385     0.0690     0.0962     0.1245     0.1544 
              0.1828     0.2098     0.2352     0.2599     0.2842 
              0.3137     0.3545     0.3920     0.4267     0.4586 
              0.4878     0.5147     0.5395     0.5625     0.5841 
              0.6044     0.6235     0.6416     0.6588     0.6753 
              0.6911     0.7063     0.7210     0.7352     0.7490 
              0.7625     0.7755     0.7890     0.8023     0.8156 
              0.8287     0.8417     0.8545     0.8672     0.8798 
              0.8923     0.9046     0.9169     0.9290     0.9411 
              0.9530     0.9649     0.9767     0.9884     1.0000 
  Width: 
              0.0800     0.1048     0.1295     0.1503     0.1657 
              0.1812     0.1967     0.2135     0.2305     0.2475 
              0.2645     0.2815     0.2986     0.3156     0.3350 
              0.3554     0.3759     0.3963     0.4167     0.4371 
              0.4575     0.4780     0.4984     0.5188     0.5392 
              0.5596     0.5801     0.6005     0.6209     0.6413 
              0.6617     0.6822     0.7002     0.7178     0.7355 
              0.7531     0.7707     0.7884     0.8060     0.8236 
              0.8413     0.8589     0.8766     0.8942     0.9118 
              0.9295     0.9471     0.9647     0.9824     1.0000 

  Transect 104010
  Area:  
              0.0006     0.0045     0.0112     0.0192     0.0299 
              0.0410     0.0525     0.0644     0.0767     0.0894 
              0.1025     0.1160     0.1299     0.1442     0.1590 
              0.1741     0.1896     0.2055     0.2218     0.2386 
              0.2557     0.2732     0.2912     0.3096     0.3283 
              0.3475     0.3670     0.3870     0.4074     0.4282 
              0.4493     0.4709     0.4930     0.5162     0.5407 
              0.5664     0.5934     0.6219     0.6511     0.6805 
              0.7100     0.7399     0.7699     0.8001     0.8307 
              0.8624     0.8951     0.9290     0.9639     1.0000 
  Hrad:  
              0.0405     0.0612     0.1309     0.1818     0.2118 
              0.2462     0.2809     0.3151     0.3482     0.3802 
              0.4111     0.4409     0.4695     0.4972     0.5238 
              0.5496     0.5744     0.5984     0.6215     0.6439 
              0.6655     0.6865     0.7068     0.7266     0.7458 
              0.7644     0.7825     0.8001     0.8172     0.8339 
              0.8501     0.8660     0.8769     0.8815     0.8858 
              0.8897     0.8931     0.8945     0.9054     0.9167 
              0.9283     0.9402     0.9524     0.9648     0.9733 
              0.9791     0.9849     0.9905     0.9960     1.0000 
  Width: 
              0.0299     0.1681     0.1938     0.2664     0.2959 
              0.3068     0.3177     0.3286     0.3395     0.3503 
[...]
  -----------------------------------------------------------
  System                88.37    217.85   1592.47     186.623
  
  
  ********************
  Link Flow Summary
  ********************
  
  -----------------------------------------------------------------------------
                                 Maximum  Time of Max   Maximum    Max/    Max/
                                  |Flow|   Occurrence   |Veloc|    Full    Full
  Link                 Type          CFS  days hr:min    ft/sec    Flow   Depth
  -----------------------------------------------------------------------------
  TW01130              CONDUIT   1269.30     0  13:00     13.08    0.44    0.62
  TW01200              CONDUIT    673.33     0  12:21     17.18    0.82    0.71
  TW01220              CONDUIT    546.05     0  13:36     10.86    2.04    1.00
  TW01240              CONDUIT    474.77     0  12:11      7.46    0.93    1.00
  TW01260              CONDUIT    477.36     0  12:43     10.48    0.66    1.00
  TW01280              CONDUIT    536.83     0  12:43      8.44    1.63    1.00
  TW01310              CONDUIT    633.02     0  12:39     12.54    2.31    0.94
  TW01330              CONDUIT    543.31     0  12:25     11.96    0.60    0.80
  TW01331              CONDUIT    115.00     0  12:25      8.93    0.65    0.80
  TW01350              CONDUIT     46.62     0  15:08      7.79    0.21    0.60
  TW01355              CONDUIT     46.62     0  15:07     26.38    4.96    1.00
  TW01357              CONDUIT    340.69     0  12:19     10.30    0.96    1.00
  TW01360              CONDUIT    320.07     0  12:13     20.12    1.03    1.00
  TW01370              CONDUIT    348.57     0  12:16     21.92    0.95    1.00
  TW01380              CONDUIT    265.69     0  12:14     16.99    1.41    1.00
  TW01385              CONDUIT    210.20     0  12:08     16.73    1.27    1.00
  TW01390              CONDUIT    163.84     0  12:04     17.06    1.33    1.00
  TW02010              CONDUIT     62.02     0  12:48     11.50    0.98    0.78
  TW04020              CONDUIT    382.72     0  13:21      8.77    1.28    0.81
  TW04050              CONDUIT    424.34     0  12:50     13.28    1.21    0.92
  TW04065              CONDUIT    370.77     0  12:15     10.59    0.83    1.00
  TW04070              CONDUIT    190.43     0  12:14     12.45    0.81    1.00
  TW04071              CONDUIT    190.43     0  12:14     12.45    0.81    1.00
  TW04100              CONDUIT    137.11     0  12:26     13.24    0.86    0.81
  TW04110              CONDUIT    138.24     0  12:26     10.72    0.81    1.00
  TW05010              CONDUIT    112.24     0  12:06     15.91    1.22    1.00
  TW06005              CONDUIT    171.75     0  12:16      9.20    0.78    0.85
  TW06010              CONDUIT    174.53     0  12:15     15.47    0.78    0.84
  TW07010              CONDUIT    224.66     0  12:38      8.59    0.72    1.00
  TW07040              CONDUIT    189.57     0  12:22     16.66    0.26    0.67
  TW07050              CONDUIT    189.67     0  12:21     18.65    0.73    0.62
  TW07060              CONDUIT    182.42     0  12:20     14.56    1.13    1.00
  TW07070              CONDUIT    102.65     0  12:10     14.55    1.99    1.00
  TW07080              CONDUIT     70.96     0  12:06     10.04    1.16    1.00
  TW07090              CONDUIT     76.82     0  12:04     10.87    1.07    1.00
  TW08010              CONDUIT    175.31     0  12:15     12.38    0.62    0.78
  TW08011              CONDUIT     49.76     0  12:15     10.68    0.87    0.90
  TW08012              CONDUIT     29.45     0  12:11      9.56    0.94    1.00
  TW09010              CONDUIT    130.53     0  12:07     13.60    1.06    1.00
  TW09011              CONDUIT    130.53     0  12:07     13.60    1.06    1.00
  TW01020              CHANNEL   1592.47     0  12:46      9.68    0.06    0.35
  TW01040              CHANNEL   1592.61     0  12:45     14.99    0.00    0.08
  TW01050              CHANNEL   1594.62     0  12:42      6.19    0.02    0.19
  TW01060              CHANNEL   1595.60     0  12:40     15.52    0.01    0.08
  TW01070              CHANNEL   1447.51     0  12:41      8.42    0.01    0.14
  TW01080              CHANNEL   1447.73     0  12:40     12.36    0.01    0.09
  TW01090              CHANNEL   1447.96     0  12:38     13.27    0.01    0.08
  TW01100              CHANNEL   1447.93     0  12:37     15.81    0.01    0.14
  TW01110              CHANNEL   1269.28     0  13:01     13.02    0.00    0.09
  TW01120              CHANNEL   1269.30     0  13:00     13.38    0.00    0.08
  TW01140              CHANNEL   1269.31     0  13:00     12.68    0.01    0.17
  TW01150              CHANNEL   1112.68     0  13:15      6.55    0.01    0.15
  TW01160              CHANNEL   1067.05     0  13:20      8.62    0.01    0.11
  TW01170              CHANNEL   1041.31     0  13:23     11.29    0.01    0.12
  TW01180              CHANNEL    672.68     0  12:23      6.76    0.00    0.12
  TW01190              CHANNEL    673.21     0  12:22     10.48    0.00    0.10
  TW01210              CHANNEL    552.25     0  13:23      3.05    0.01    0.29
  TW01230              CHANNEL    549.59     0  13:13      1.67    0.01    0.59
  TW01250              CHANNEL    773.42     0  12:11      5.50    0.01    0.49
  TW01270              CHANNEL    496.05     0  12:43      3.38    0.04    0.48
  TW01290              CHANNEL   1917.64     0  12:42      4.39    0.02    0.41
  TW01300              CHANNEL    891.23     0  12:48      8.60    0.04    0.27
  TW01320              CHANNEL    657.65     0  12:26      6.67    0.04    0.45
  TW01340              CHANNEL   1007.59     0  12:16      2.86    0.04    0.34
  TW02005              CHANNEL    138.07     0  12:49      2.00    0.00    0.19
  TW03010              CHANNEL    203.27     0  12:15      3.68    0.00    0.10
  TW04010              CHANNEL    382.69     0  13:22     15.52    0.00    0.08
  TW04030              CHANNEL    423.94     0  12:53      4.32    0.00    0.15
  TW04040              CHANNEL    424.32     0  12:50     10.41    0.00    0.09
  TW04060              CHANNEL    327.75     0  12:48      2.93    0.00    0.38
  TW04080              CHANNEL    490.47     0  12:15      8.04    0.01    0.17
  TW04090              CHANNEL    302.67     0  12:16      8.56    0.00    0.13
  TW04120              CHANNEL    328.22     0  12:15      6.45    0.00    0.17
  TW07020              CHANNEL    519.37     0  12:19      4.95    0.00    0.26
  TW07030              CHANNEL    533.79     0  12:17     14.67    0.01    0.17
  TW08005              CHANNEL    241.85     0  12:15      3.79    0.01    0.25
  TW01221              CHANNEL      8.01     0  13:17      0.72    0.00    0.04
  TW01241              CHANNEL    558.58     0  12:49      4.41    0.03    0.48
  TW01261              CHANNEL      0.00     0  00:00      0.00    0.00    0.00
  TW01281              CHANNEL      0.00     0  00:00      0.00    0.00    0.00
  TW01311              CHANNEL      0.00     0  00:00      0.00    0.00    0.00
  TW01332              CHANNEL      0.00     0  00:00      0.00    0.00    0.00
  TW04066              CHANNEL      0.00     0  00:00      0.00    0.00    0.00
  WEIR1@TW01355-TW01350 WEIR         0.00     0  00:00                      0.00
  WEIR2@TW01360-TW01357 WEIR       146.09     0  12:15                      0.01
  WEIR3@TW01370-TW01357 WEIR        87.97     0  12:17                      0.00
  WEIR4@TW01380-TW01370 WEIR       208.31     0  12:16                      0.01
  WEIR5@TW01385-TW01380 WEIR       309.20     0  12:15                      0.02
  WEIR6@TW01390-TW01385 WEIR       339.44     0  12:15                      0.02
  WEIR7@TW02010-TW02005 WEIR        76.15     0  12:47                      0.01
  WEIR8@TW04100-TW04090 WEIR         0.00     0  00:00                      0.00
  WEIR9@TW05010-TW04080 WEIR        91.16     0  12:15                      0.00
  WEIR10@TW06010-TW06005 WEIR         0.00     0  00:00                      0.00
  WEIR11@TW07010-TW01250 WEIR         0.00     0  00:00                      0.00
  WEIR12@TW07040-TW07010 WEIR         0.00     0  00:00                      0.00
  WEIR13@TW07050-TW07040 WEIR         0.00     0  00:00                      0.00
  WEIR14@TW07060-TW07050 WEIR        17.06     0  12:19                      0.00
  WEIR15@TW07070-TW07060 WEIR       143.40     0  12:19                      0.01
  WEIR16@TW07080-TW07070 WEIR       152.45     0  12:16                      0.01
  WEIR17@TW07090-TW07080 WEIR       149.04     0  12:15                      0.01
  WEIR18@TW08010-TW08005 WEIR         0.00     0  00:00                      0.00
  WEIR19@TW09010-TW01360 WEIR       241.99     0  12:15                      0.01
  
  
  ***************************
  Flow Classification Summary
  ***************************
  
  -------------------------------------------------------------------------------------
                      Adjusted    ---------- Fraction of Time in Flow Class ---------- 
                       /Actual         Up    Down  Sub   Sup   Up    Down  Norm  Inlet 
  Conduit               Length    Dry  Dry   Dry   Crit  Crit  Crit  Crit  Ltd   Ctrl  
  -------------------------------------------------------------------------------------
  TW01130                 1.00   0.02  0.00  0.00  0.00  0.00  0.00  0.98  0.00  0.00
  TW01200                 1.00   0.01  0.00  0.00  0.03  0.96  0.00  0.00  0.05  0.00
  TW01220                 1.00   0.00  0.00  0.00  1.00  0.00  0.00  0.00  0.00  0.00
  TW01240                 1.00   0.00  0.00  0.00  1.00  0.00  0.00  0.00  0.00  0.00
  TW01260                 1.00   0.04  0.01  0.00  0.10  0.85  0.00  0.00  0.01  0.00
  TW01280                 1.00   0.04  0.00  0.00  0.96  0.00  0.00  0.00  0.00  0.00
  TW01310                 1.00   0.03  0.00  0.00  0.97  0.00  0.00  0.00  0.01  0.00
  TW01330                 1.00   0.02  0.00  0.00  0.08  0.91  0.00  0.00  0.01  0.00
  TW01331                 1.00   0.91  0.00  0.00  0.00  0.00  0.00  0.09  0.00  0.00
  TW01350                 1.00   0.01  0.03  0.00  0.41  0.56  0.00  0.00  0.96  0.00
  TW01355                 1.00   0.02  0.00  0.00  0.29  0.69  0.00  0.00  0.00  0.00
  TW01357                 1.00   0.01  0.00  0.00  0.86  0.14  0.00  0.00  0.25  0.00
  TW01360                 1.00   0.01  0.07  0.00  0.66  0.27  0.00  0.00  0.95  0.00
  TW01370                 1.00   0.01  0.00  0.00  0.66  0.33  0.00  0.00  0.98  0.00
  TW01380                 1.00   0.01  0.00  0.00  0.01  0.98  0.00  0.00  0.00  0.00
  TW01385                 1.00   0.01  0.00  0.00  0.03  0.96  0.00  0.00  0.94  0.00
  TW01390                 1.00   0.01  0.00  0.00  0.03  0.97  0.00  0.00  0.01  0.00
  TW02010                 1.00   0.01  0.10  0.00  0.04  0.86  0.00  0.00  0.11  0.00
  TW04020                 1.00   0.04  0.00  0.00  0.00  0.00  0.00  0.96  0.00  0.00
  TW04050                 1.00   0.01  0.00  0.00  0.00  0.00  0.00  0.99  0.00  0.00
  TW04065                 1.00   0.02  0.00  0.00  0.97  0.01  0.00  0.00  0.87  0.00
  TW04070                 1.00   0.02  0.00  0.00  0.05  0.93  0.00  0.00  0.03  0.00
  TW04071                 1.00   0.02  0.00  0.00  0.05  0.93  0.00  0.00  0.03  0.00
  TW04100                 1.00   0.01  0.01  0.00  0.26  0.72  0.00  0.00  0.91  0.00
  TW04110                 1.00   0.02  0.00  0.00  0.06  0.92  0.00  0.00  0.62  0.00
  TW05010                 1.00   0.01  0.09  0.00  0.74  0.16  0.00  0.00  0.95  0.00
  TW06005                 1.00   0.01  0.06  0.00  0.93  0.00  0.00  0.00  0.85  0.00
  TW06010                 1.00   0.01  0.00  0.00  0.07  0.93  0.00  0.00  0.41  0.00
  TW07010                 1.00   0.04  0.00  0.00  0.09  0.00  0.00  0.88  0.00  0.00
  TW07040                 1.00   0.01  0.01  0.00  0.91  0.07  0.00  0.00  0.99  0.00
  TW07050                 1.00   0.01  0.00  0.00  0.00  0.99  0.00  0.00  0.00  0.00
  TW07060                 1.00   0.01  0.00  0.00  0.02  0.97  0.00  0.00  0.00  0.00
  TW07070                 1.00   0.01  0.00  0.00  0.03  0.96  0.00  0.00  0.00  0.00
  TW07080                 1.00   0.01  0.00  0.00  0.10  0.89  0.00  0.00  0.92  0.00
  TW07090                 1.00   0.01  0.00  0.00  0.05  0.94  0.00  0.00  0.37  0.00
  TW08010                 1.00   0.01  0.00  0.00  0.97  0.03  0.00  0.00  0.98  0.00
  TW08011                 1.00   0.01  0.00  0.00  0.95  0.04  0.00  0.00  0.97  0.00
  TW08012                 1.00   0.01  0.00  0.00  0.95  0.04  0.00  0.00  0.96  0.00
  TW09010                 1.00   0.01  0.00  0.00  0.20  0.79  0.00  0.00  0.95  0.00
  TW09011                 1.00   0.01  0.00  0.00  0.20  0.79  0.00  0.00  0.95  0.00
  TW01020                 1.00   0.00  0.11  0.00  0.80  0.09  0.00  0.00  0.46  0.00
  TW01040                 1.00   0.08  0.00  0.00  0.03  0.89  0.00  0.00  0.00  0.00
  TW01050                 1.00   0.05  0.00  0.00  0.89  0.06  0.00  0.00  0.88  0.00
  TW01060                 1.00   0.01  0.00  0.00  0.02  0.98  0.00  0.00  0.00  0.00
  TW01070                 1.00   0.01  0.07  0.00  0.84  0.08  0.00  0.00  0.92  0.00
  TW01080                 1.00   0.05  0.00  0.00  0.68  0.27  0.00  0.00  0.89  0.00
  TW01090                 1.00   0.02  0.00  0.00  0.03  0.95  0.00  0.00  0.00  0.00
  TW01100                 1.00   0.01  0.00  0.00  0.08  0.91  0.00  0.00  0.92  0.00
  TW01110                 1.00   0.01  0.05  0.00  0.02  0.92  0.00  0.00  0.09  0.00
  TW01120                 1.00   0.02  0.00  0.00  0.80  0.18  0.00  0.00  0.88  0.00
  TW01140                 1.00   0.01  0.00  0.00  0.02  0.97  0.00  0.00  0.01  0.00
  TW01150                 1.00   0.01  0.01  0.00  0.98  0.00  0.00  0.00  0.98  0.00
  TW01160                 1.00   0.01  0.00  0.00  0.94  0.06  0.00  0.00  0.95  0.00
  TW01170                 1.00   0.01  0.02  0.00  0.02  0.95  0.00  0.00  0.01  0.00
  TW01180                 1.00   0.02  0.00  0.00  0.94  0.04  0.00  0.00  0.93  0.00
  TW01190                 1.00   0.01  0.00  0.00  0.75  0.23  0.00  0.00  0.95  0.00
  TW01210                 1.00   0.00  0.00  0.00  1.00  0.00  0.00  0.00  0.05  0.00
  TW01230                 1.00   0.00  0.00  0.00  1.00  0.00  0.00  0.00  0.00  0.00
  TW01250                 1.00   0.00  0.04  0.00  0.96  0.00  0.00  0.00  0.87  0.00
  TW01270                 1.00   0.04  0.00  0.00  0.96  0.00  0.00  0.00  0.01  0.00
  TW01290                 1.00   0.04  0.00  0.00  0.96  0.01  0.00  0.00  0.89  0.00
  TW01300                 1.00   0.03  0.00  0.00  0.65  0.33  0.00  0.00  0.01  0.00
  TW01320                 1.00   0.02  0.00  0.00  0.97  0.01  0.00  0.00  0.96  0.00
  TW01340                 1.00   0.01  0.00  0.00  0.98  0.02  0.00  0.00  0.37  0.00
  TW02005                 1.00   0.01  0.00  0.00  0.98  0.01  0.00  0.00  0.98  0.00
  TW03010                 1.00   0.01  0.00  0.00  0.94  0.05  0.00  0.00  0.93  0.00
  TW04010                 1.00   0.03  0.02  0.00  0.90  0.05  0.00  0.00  0.89  0.00
  TW04030                 1.00   0.02  0.00  0.00  0.76  0.21  0.00  0.00  0.94  0.00
  TW04040                 1.00   0.01  0.00  0.00  0.01  0.98  0.00  0.00  0.94  0.00
  TW04060                 1.00   0.01  0.02  0.00  0.87  0.10  0.00  0.00  0.29  0.00
  TW04080                 1.00   0.01  0.00  0.00  0.02  0.97  0.00  0.00  0.02  0.00
  TW04090                 1.00   0.01  0.00  0.00  0.14  0.85  0.00  0.00  0.76  0.00
  TW04120                 1.00   0.01  0.00  0.00  0.06  0.93  0.00  0.00  0.06  0.00
  TW07020                 1.00   0.02  0.00  0.00  0.59  0.39  0.00  0.00  0.60  0.00
  TW07030                 1.00   0.01  0.00  0.00  0.01  0.98  0.00  0.00  0.00  0.00
  TW08005                 1.00   0.01  0.00  0.00  0.99  0.00  0.00  0.00  0.99  0.00
  TW01221                 1.00   0.99  0.00  0.00  0.00  0.00  0.00  0.01  0.00  0.00
  TW01241                 1.00   0.94  0.00  0.00  0.05  0.00  0.00  0.01  0.00  0.00
  TW01261                 1.00   1.00  0.00  0.00  0.00  0.00  0.00  0.00  0.00  0.00
  TW01281                 1.00   1.00  0.00  0.00  0.00  0.00  0.00  0.00  0.00  0.00
  TW01311                 1.00   1.00  0.00  0.00  0.00  0.00  0.00  0.00  0.00  0.00
  TW01332                 1.00   1.00  0.00  0.00  0.00  0.00  0.00  0.00  0.00  0.00
  TW04066                 1.00   1.00  0.00  0.00  0.00  0.00  0.00  0.00  0.00  0.00
  
  
  *************************
  Conduit Surcharge Summary
  *************************
  
  ----------------------------------------------------------------------------
                                                           Hours        Hours 
                         --------- Hours Full --------   Above Full   Capacity
  Conduit                Both Ends  Upstream  Dnstream   Normal Flow   Limited
  ----------------------------------------------------------------------------
  TW01200                     0.01      2.58      0.01      0.01         0.01
  TW01220                     3.01      3.35      3.01      3.03         3.01
  TW01240                     3.38      3.38      3.38      0.01         1.70
  TW01260                     2.42      2.42      2.54      0.01         0.81
  TW01280                     2.19      2.23      2.19      1.33         2.19
  TW01310                     0.01      0.73      0.01      1.34         0.01
  TW01330                     0.01      0.34      0.01      0.01         0.01
  TW01331                     0.01      0.09      0.01      0.01         0.01
  TW01355                     8.56     27.91      8.56     26.24         8.56
  TW01357                    10.97     11.06     18.94      0.01         0.52
  TW01360                     0.51      0.51     14.59      0.06         0.26
  TW01370                     0.23      0.23     14.59      0.01         0.15
  TW01380                     0.23      0.88      0.23      0.53         0.23
  TW01385                     0.84      0.84      0.91      0.19         0.40
  TW01390                     0.86      0.99      0.86      0.33         0.86
  TW02010                     0.01      5.54      0.01      0.01         0.01
  TW04020                     0.01      1.61      0.01      1.69         0.01
  TW04050                     0.01      1.70      0.01      1.29         0.01
  TW04065                     1.33      1.35      1.58      0.01         0.67
  TW04070                     0.44      0.44      1.45      0.01         0.01
  TW04071                     0.44      0.44      1.45      0.01         0.01
  TW04100                     0.01      0.79      0.01      0.01         0.01
  TW04110                     1.33      1.33      1.55      0.01         1.24
  TW05010                     0.32      0.57      0.32      0.49         0.32
  TW06005                     0.01      0.08      0.01      0.01         0.01
  TW06010                     0.01      0.01      0.08      0.01         0.01
  TW07010                     2.71      2.77      2.71      0.01         2.67
  TW07040                     0.01      0.01      0.44      0.01         0.01
  TW07060                     0.01      0.34      0.01      0.23         0.01
  TW07070                     0.41      1.92      0.41      1.62         0.41
  TW07080                     1.63      1.63      1.92      0.55         1.36
  TW07090                     1.45      1.45      1.63      0.04         0.44
  TW08010                     0.01      0.01      0.03      0.01         0.01
  TW08011                     0.01      0.01      0.71      0.01         0.01
  TW08012                     0.01      0.01      1.49      0.01         0.01
  TW09010                     0.40      0.47      0.57      0.05         0.08
  TW09011                     0.40      0.47      0.57      0.05         0.08
  

  Analysis begun on:  Fri Mar 09 15:35:28 2018
  Analysis ended on:  Fri Mar 09 15:35:33 2018
  Total elapsed time: 00:00:05