
  EPA STORM WATER MANAGEMENT MODEL - VERSION 5.1 (Build 5.1.012)
  --------------------------------------------------------------

  Example 4 of Extran Manual - 
  Weir 
  
  
  *********************************************************
  NOTE: The summary statistics displayed in this report are
  based on results found at every computational time step,  
  not just on results from each reporting time step.
  *********************************************************
  
  ****************
  Analysis Options
  ****************
  Flow Units ............... CFS
  Process Models:
    Rainfall/Runoff ........ NO
    RDII ................... NO
    Snowmelt ............... NO
    Groundwater ............ NO
    Flow Routing ........... YES
    Ponding Allowed ........ NO
    Water Quality .......... NO
  Flow Routing Method ...... DYNWAVE
  Starting Date ............ 01/01/2002 00:00:00
  Ending Date .............. 01/01/2002 08:00:00
  Antecedent Dry Days ...... 0.0
  Report Time Step ......... 00:15:00
  Routing Time Step ........ 20.00 sec
  Variable Time Step ....... NO
  Maximum Trials ........... 8
  Number of Threads ........ 1
  Head Tolerance ........... 0.005000 ft
  
  
  **************************        Volume        Volume
  Flow Routing Continuity        acre-feet      10^6 gal
  **************************     ---------     ---------
  Dry Weather Inflow .......         0.000         0.000
  Wet Weather Inflow .......         0.000         0.000
  Groundwater Inflow .......         0.000         0.000
  RDII Inflow ..............         0.000         0.000
  External Inflow ..........        33.470        10.907
  External Outflow .........        33.345        10.866
  Flooding Loss ............         0.000         0.000
  Evaporation Loss .........         0.000         0.000
  Exfiltration Loss ........         0.000         0.000
  Initial Stored Volume ....         0.000         0.000
  Final Stored Volume ......         0.120         0.039
  Continuity Error (%) .....         0.016
  
  
  *************************
  Highest Continuity Errors
  *************************
  Node 80608 (1.52%)
  
  
  ********************************
  Highest Flow Instability Indexes
  ********************************
  Link 8060 (2)
  Link 8040 (1)
  
  
  *************************
  Routing Time Step Summary
  *************************
  Minimum Time Step           :    20.00 sec
  Average Time Step           :    20.00 sec
  Maximum Time Step           :    20.00 sec
  Percent in Steady State     :     0.00
  Average Iterations per Step :     2.43
  Percent Not Converging      :     2.92
  
  
  ******************
  Node Depth Summary
  ******************
  
  ---------------------------------------------------------------------------------
                                 Average  Maximum  Maximum  Time of Max    Reported
                                   Depth    Depth      HGL   Occurrence   Max Depth
  Node                 Type         Feet     Feet     Feet  days hr:min        Feet
  ---------------------------------------------------------------------------------
  80408                JUNCTION     1.58     5.09   129.69     0  01:02        4.79
  80608                JUNCTION     2.95     8.97   127.27     0  01:02        8.74
  81009                JUNCTION     1.11     2.85   131.05     0  00:31        2.84
  81309                JUNCTION     1.25     2.90   120.40     0  00:51        2.86
  82309                JUNCTION     4.58    12.19   124.49     0  01:02       12.02
  10309                JUNCTION     1.50     2.86   104.46     0  01:56        2.86
  15009                JUNCTION     1.40     3.24   114.74     0  01:34        3.24
  16009                JUNCTION     1.58     3.05   105.05     0  01:49        3.05
  16109                JUNCTION     1.29     2.72   105.52     0  01:53        2.72
  10208                OUTFALL      1.33     2.63    92.53     0  01:56        2.63
  
  
  *******************
  Node Inflow Summary
  *******************
  
  -------------------------------------------------------------------------------------------------
                                  Maximum  Maximum                  Lateral       Total        Flow
                                  Lateral    Total  Time of Max      Inflow      Inflow     Balance
                                   Inflow   Inflow   Occurrence      Volume      Volume       Error
  Node                 Type           CFS      CFS  days hr:min    10^6 gal    10^6 gal     Percent
  -------------------------------------------------------------------------------------------------
  80408                JUNCTION     45.00    45.00     0  00:15        3.64        3.64      -0.219
  80608                JUNCTION      0.00    48.32     0  03:06           0        3.64       1.540
  81009                JUNCTION     50.00    50.00     0  00:15        4.04        4.04      -0.533
  81309                JUNCTION      0.00    53.60     0  00:40           0        4.06       0.327
  82309                JUNCTION     40.00    85.07     0  01:03        3.23        6.82      -0.774
  10309                JUNCTION      0.00   135.07     0  01:46           0        10.9       0.125
  15009                JUNCTION      0.00    79.52     0  01:02           0        6.05       0.068
  16009                JUNCTION      0.00   135.08     0  01:42           0        10.9       0.210
  16109                JUNCTION      0.00    57.16     0  01:51           0        4.87       0.302
  10208                OUTFALL       0.00   135.06     0  01:56           0        10.9       0.000
  
  
  **********************
  Node Surcharge Summary
  **********************
  
  Surcharging occurs when water rises above the top of the highest conduit.
  ---------------------------------------------------------------------
                                               Max. Height   Min. Depth
                                   Hours       Above Crown    Below Rim
  Node                 Type      Surcharged           Feet         Feet
  ---------------------------------------------------------------------
  80408                JUNCTION        2.01          1.087        8.313
  80608                JUNCTION        2.45          4.973        7.727
  82309                JUNCTION        2.64          5.989       30.511
  
  
  *********************
  Node Flooding Summary
  *********************
  
  No nodes were flooded.
  
  
  ***********************
  Outfall Loading Summary
  ***********************
  
  -----------------------------------------------------------
                         Flow       Avg       Max       Total
                         Freq      Flow      Flow      Volume
  Outfall Node           Pcnt       CFS       CFS    10^6 gal
  -----------------------------------------------------------
  10208                 94.24     53.52    135.06      10.865
  -----------------------------------------------------------
  System                94.24     53.52    135.06      10.865
  
  
  ********************
  Link Flow Summary
  ********************
  
  -----------------------------------------------------------------------------
                                 Maximum  Time of Max   Maximum    Max/    Max/
                                  |Flow|   Occurrence   |Veloc|    Full    Full
  Link                 Type          CFS  days hr:min    ft/sec    Flow   Depth
  -----------------------------------------------------------------------------
  8040                 CONDUIT     48.32     0  03:06      7.13    0.66    1.00
  8060                 CONDUIT     48.32     0  03:06      4.78    0.91    1.00
  8100                 CONDUIT     53.60     0  00:40      6.60    0.69    0.62
  8130                 CONDUIT     52.26     0  00:55      5.31    0.74    0.67
  1030                 CONDUIT    135.06     0  01:56      5.98    0.04    0.30
  1570                 CONDUIT     77.94     0  01:38      5.55    0.63    0.57
  1600                 CONDUIT     57.16     0  02:02      5.14    0.39    0.48
  1630                 CONDUIT    135.07     0  01:46      5.86    0.06    0.33
  1602                 CONDUIT     57.16     0  01:51      3.54    1.32    0.77
  90010                WEIR        28.25     0  01:02                      1.00
  
  
  ***************************
  Flow Classification Summary
  ***************************
  
  -------------------------------------------------------------------------------------
                      Adjusted    ---------- Fraction of Time in Flow Class ---------- 
                       /Actual         Up    Down  Sub   Sup   Up    Down  Norm  Inlet 
  Conduit               Length    Dry  Dry   Dry   Crit  Crit  Crit  Crit  Ltd   Ctrl  
  -------------------------------------------------------------------------------------
  8040                    1.00   0.00  0.00  0.00  0.97  0.03  0.00  0.00  0.65  0.00
  8060                    1.00   0.00  0.00  0.00  0.42  0.00  0.00  0.57  0.08  0.00
  8100                    1.00   0.00  0.00  0.00  0.97  0.03  0.00  0.00  0.92  0.00
  8130                    1.00   0.00  0.00  0.00  0.98  0.02  0.00  0.00  0.89  0.00
  1030                    1.00   0.03  0.00  0.00  0.97  0.00  0.00  0.00  0.00  0.00
  1570                    1.00   0.00  0.00  0.00  1.00  0.00  0.00  0.00  0.65  0.00
  1600                    1.00   0.00  0.00  0.00  0.98  0.02  0.00  0.00  0.51  0.00
  1630                    1.00   0.00  0.00  0.00  0.97  0.03  0.00  0.00  0.44  0.00
  1602                    1.00   0.00  0.00  0.00  1.00  0.00  0.00  0.00  0.00  0.00
  
  
  *************************
  Conduit Surcharge Summary
  *************************
  
  ----------------------------------------------------------------------------
                                                           Hours        Hours 
                         --------- Hours Full --------   Above Full   Capacity
  Conduit                Both Ends  Upstream  Dnstream   Normal Flow   Limited
  ----------------------------------------------------------------------------
  8040                        2.01      2.01      2.44      0.01         0.01
  8060                        2.45      2.45      2.64      0.01         0.01
  1602                        0.01      2.89      0.01      2.78         0.01
  

  Analysis begun on:  Fri Jan 12 14:35:12 2018
  Analysis ended on:  Fri Jan 12 14:35:12 2018
  Total elapsed time: < 1 sec