
  EPA STORM WATER MANAGEMENT MODEL - VERSION 5.1 (Build 5.1.012)
  --------------------------------------------------------------

  Example User4 
  
  WARNING 01: wet weather time step reduced to recording interval for Rain Gage GAGE1
  WARNING 04: minimum elevation drop used for Conduit 23809013-23809049
  WARNING 04: minimum elevation drop used for Conduit 23809049-23809050
  WARNING 04: minimum elevation drop used for Conduit 23809050-23809002
  WARNING 08: elevation drop exceeds length for Conduit 23916008-23916007
  
  *************
  Element Count
  *************
  Number of rain gages ...... 1
  Number of subcatchments ... 112
  Number of nodes ........... 209
  Number of links ........... 209
  Number of pollutants ...... 0
  Number of land uses ....... 0
  
  
  ****************
  Raingage Summary
  ****************
                                                      Data       Recording
  Name                 Data Source                    Type       Interval 
  ------------------------------------------------------------------------
  GAGE1                RainSeries1                    VOLUME       5 min.
  
  
  ********************
  Subcatchment Summary
  ********************
  Name                       Area     Width   %Imperv    %Slope Rain Gage            Outlet              
  -----------------------------------------------------------------------------------------------------------
  GMMC19CC0001              17.88    287.51     35.04    2.5000 GAGE1                23811028            
  GMMC19CC0002               2.55    135.51     44.57    1.6000 GAGE1                23708027            
  GMMC19CC0003               4.83    110.77     57.89    1.2000 GAGE1                23708023            
  GMMC19CC0004               6.56    150.97     22.35    2.4000 GAGE1                23707008            
  GMMC19CC0005               5.82    115.61     23.55    1.4000 GAGE1                23707011            
  GMMC19CC0006              10.68    223.49     35.28    1.5000 GAGE1                23707015            
  GMMC19CC0007              31.33    286.89     41.94    1.5000 GAGE1                23702032            
  GMMC19CC0008               1.84    109.67     26.62    3.0000 GAGE1                23707014            
  GMMC19CC0009               7.98    156.30     30.74    3.6000 GAGE1                23702039            
  GMMC19CC0010               1.71    199.47     27.40    3.2000 GAGE1                23707007            
  GMMC19CC0011               0.58     34.99     27.43    4.1000 GAGE1                23707007            
  GMMC19CC0012               1.35     64.73     21.13    1.5000 GAGE1                23707003            
  GMMC19CC0013               3.06     89.49     29.33    2.0000 GAGE1                23707005            
  GMMC19CC0014               1.74     68.33     47.00    3.2000 GAGE1                23702037            
  GMMC19CC0015               0.92    146.47     33.63   14.7000 GAGE1                23702036            
  GMMC19CC0016              15.24    262.15     41.08    1.1000 GAGE1                23701029            
  GMMC19CC0017               1.64    112.92     84.95    2.2000 GAGE1                23701011            
  GMMC19CC0018               2.92     87.04     38.67    3.7000 GAGE1                23701016            
  GMMC19CC0019               2.44    116.79     45.06    3.3000 GAGE1                23701023            
  GMMC19CC0020               1.28    132.00     42.45    1.8000 GAGE1                23701008            
  GMMC19CC0021               6.38    113.86     26.48    2.1000 GAGE1                23701035            
  GMMC19CC0022               0.63    125.76     48.08    2.7000 GAGE1                23701019            
  GMMC19CC0023               2.49   1146.75     26.88    1.0000 GAGE1                23701001            
  GMMC19CC0024               8.73    197.92     25.47    3.0000 GAGE1                23701034            
  GMMC19CC0025               8.82    185.33     25.54    4.4000 GAGE1                20713008            
  GMMC19CC0026               4.09    265.33     24.05    1.0000 GAGE1                23816037            
  GMMC19CC0027               7.80    157.35     24.64    4.6000 GAGE1                23816006            
  GMMC19CC0028               4.37     94.76     37.51    4.5000 GAGE1                23809053            
  GMMC19CC0029               6.92    132.06     23.24    5.2000 GAGE1                23809015            
  GMMC19CC0030               1.36     55.35     27.35    1.0000 GAGE1                23809019            
  GMMC19CC0031              12.20    183.31     40.95    3.6000 GAGE1                23809014            
  GMMC19CC0032               1.37    132.65     42.91    1.2000 GAGE1                23809004            
  GMMC19CC0033               1.17     79.56     55.64    3.1000 GAGE1                23809005            
  GMMC19CC0034               3.11    109.51     22.98    3.2000 GAGE1                23809049            
  GMMC19CC0035               3.21     93.28     26.58    1.7000 GAGE1                23808016            
  GMMC19CC0036               2.52     85.37     53.05    0.6000 GAGE1                23701017            
  GMMC19CC0037              11.69    164.36     77.24    3.0000 GAGE1                23702015            
  GMMC19CC0038               9.90    150.53     50.49    3.7000 GAGE1                23815017            
  GMMC19CC0039               3.33     87.47     54.03    2.7000 GAGE1                23815016            
  GMMC19CC0040               2.65    205.42     37.71    0.9000 GAGE1                23815015            
  GMMC19CC0041               2.81    115.95     33.67    2.1000 GAGE1                23815005            
  GMMC19CC0042               1.08    107.00     29.02    0.7000 GAGE1                23815004            
  GMMC19CC0043               2.17    126.03     34.17    0.8000 GAGE1                23815003            
  GMMC19CC0044               2.67    170.39     39.97    3.6000 GAGE1                23815002            
  GMMC19CC0045               2.15    255.56     38.64    0.9000 GAGE1                23815014            
  GMMC19CC0046              15.46    179.68     36.12    1.8000 GAGE1                23809028            
  GMMC19CC0047               3.91    165.71     79.94    3.2000 GAGE1                23809027            
  GMMC19CC0048              11.47    248.24     36.80    0.9000 GAGE1                23814006            
  GMMC19CC0049              11.05    193.65     50.73    3.2000 GAGE1                23811029            
  GMMC19CC0050               4.89    153.12     65.32    1.7000 GAGE1                23814009            
  GMMC19CC0051               1.65     92.82     60.59    5.1000 GAGE1                23811028            
  GMMC19CC0052               2.00     98.72     58.52    2.0000 GAGE1                23815025            
  GMMC19CC0053               3.65    123.06     44.59    4.9000 GAGE1                23810026            
  GMMC19CC0054               1.13    122.37     56.17    2.1000 GAGE1                23815030            
  GMMC19CC0055               9.14    158.29     43.05    4.0000 GAGE1                23815032            
  GMMC19CC0056               1.90     83.07     83.69    0.8000 GAGE1                23815024            
  GMMC19CC0057               0.93     94.85     81.77    0.9000 GAGE1                23815023            
  GMMC19CC0058               3.13    103.00     38.84    1.1000 GAGE1                23815021            
  GMMC19CC0059               1.55     70.64     44.44    2.4000 GAGE1                23815009            
  GMMC19CC0060               1.21    100.37     33.02    0.9000 GAGE1                23810012            
  GMMC19CC0061               2.04    176.58     31.23    0.9000 GAGE1                23810011            
  GMMC19CC0062               6.12    131.58     31.34    5.0000 GAGE1                23810019            
  GMMC19CC0063              14.25    275.27     56.32    2.0000 GAGE1                23811004            
  GMMC19CC0064               2.73    128.89     48.28    3.8000 GAGE1                23811003            
  GMMC19CC0065               4.05    182.90     37.17    2.0000 GAGE1                23810016            
  GMMC19CC0066               1.50    204.59     21.55    1.0000 GAGE1                23810014            
  GMMC19CC0067               9.57    174.30     36.77    3.1000 GAGE1                23810010            
  GMMC19CC0068               5.39    236.72     70.89    0.6000 GAGE1                23810009            
  GMMC19CC0069               8.83    200.33     22.13    1.0000 GAGE1                23807013            
  GMMC19CC0070               6.37    158.81     22.33    3.2000 GAGE1                23802012            
  GMMC19CC0071               1.82    189.01     26.07    2.8000 GAGE1                23807017            
  GMMC19CC0072               2.82     73.44     21.00    3.3000 GAGE1                23807018            
  GMMC19CC0073               2.83    263.03     22.09    6.0000 GAGE1                23807020            
  GMMC19CC0074               3.81     75.66     21.04    1.0000 GAGE1                23807031            
  GMMC19CC0075               0.81     86.84     60.96    3.2000 GAGE1                23809026            
  GMMC19CC0076               3.78    390.45     34.13    3.1000 GAGE1                23808025            
  GMMC19CC0077               1.95    146.75     27.71    1.1000 GAGE1                23808024            
  GMMC19CC0078              14.52    161.98     37.33    2.7000 GAGE1                23808022            
  GMMC19CC0079              10.75    145.57     33.80    2.6000 GAGE1                23808005            
  GMMC19CC0080               3.76    250.23     36.94    4.3000 GAGE1                23801007            
  GMMC19CC0081               7.57    157.21     34.79    3.6000 GAGE1                23801009            
  GMMC19CC0082               4.49    144.23     27.71    1.0000 GAGE1                23807028            
  GMMC19CC0083               3.80    104.05     25.09    2.5000 GAGE1                23807004            
  GMMC19CC0084               1.59     59.58     32.41    0.5000 GAGE1                23808032            
  GMMC19CC0085               5.48    744.39     23.01    2.3000 GAGE1                23801028            
  GMMC19CC0086               4.92    159.62     29.56    1.6000 GAGE1                23808019            
  GMMC19CC0087               6.24    142.44     41.81    2.1000 GAGE1                23801020            
  GMMC19CC0088               3.62    144.82     21.04    5.0000 GAGE1                23801025            
  GMMC19CC0089               3.68     92.44     29.23    3.1000 GAGE1                23801014            
  GMMC19CC0090               0.13     51.24     21.00    0.5000 GAGE1                23801026            
  GMMC19CC0091               2.94    113.41     33.53    3.4000 GAGE1                23801011            
  GMMC19CC0092               0.90     72.18     21.36    0.6000 GAGE1                23801013            
  GMMC19CC0093               4.33    232.30     38.49    0.6000 GAGE1                23801032            
  GMMC19CC0094              11.29    201.15     50.19    1.0000 GAGE1                23801001            
  GMMC19CC0095               4.71    119.58     34.51    4.2000 GAGE1                23916027            
  GMMC19CC0096               1.26    135.10     50.12    0.6000 GAGE1                23801003            
  GMMC19CC0097               1.25     91.74     50.28    0.6000 GAGE1                23916026            
  GMMC19CC0098               6.33    114.72     33.08    3.9000 GAGE1                23916014            
  GMMC19CC0099               3.77    112.87     22.11    3.2000 GAGE1                23916017            
  GMMC19CC0100               1.57     88.83     45.98    1.8000 GAGE1                23916015            
  GMMC19CC0101               1.17     47.88     30.12    3.0000 GAGE1                23916003            
  GMMC19CC0102              10.92    317.30     43.40    4.0000 GAGE1                23916007            
  GMMC19CC0103               1.43    119.23     50.15    6.0000 GAGE1                20712009            
  GMMC19CC0104               1.32     54.15     45.47    4.0000 GAGE1                20712010            
  GMMC19CC0105               0.73    118.87     29.93    1.0000 GAGE1                23808013            
  GMMC19CC0106               1.16     55.62     35.32    1.0000 GAGE1                23808030            
  GMMC19CC0107               1.24    127.24     31.99    1.7000 GAGE1                20712011            
  GMMC19CC0108               1.43    160.57     45.96    1.3000 GAGE1                23809003            
  GMMC19CC0109               5.31    138.37     49.54    5.7000 GAGE1                23702027            
  GMMC19CC0110               1.60    101.21     33.84    5.0000 GAGE1                23703003            
  GMMC19CC0111               1.83     82.26     38.54    2.9000 GAGE1                20704016            
  GMMC19CC0112               3.62    100.55     32.47    4.5000 GAGE1                23916025            
  
  
  ************
  Node Summary
  ************
                                           Invert      Max.    Ponded    External
  Name                 Type                 Elev.     Depth      Area    Inflow  
  -------------------------------------------------------------------------------
  20704016             JUNCTION            874.33     10.00       0.0    Yes
  20704017             JUNCTION            870.82     10.00       0.0
  20704018             JUNCTION            860.89     10.00       0.0
  20704025             JUNCTION            849.69      8.00       0.0
  20712009             JUNCTION            895.90     10.00       0.0    Yes
  20712010             JUNCTION            882.17      9.00       0.0    Yes
  20712011             JUNCTION            870.56     11.00       0.0    Yes
  20713008             JUNCTION            898.59      7.00       0.0    Yes
  23701001             JUNCTION            882.16      3.00       0.0    Yes
  23701005             JUNCTION            888.95      9.00       0.0
  23701006             JUNCTION            891.36      9.00       0.0
  23701007             JUNCTION            892.42     10.00       0.0
  23701008             JUNCTION            894.50     10.00       0.0    Yes
  23701009             JUNCTION            897.40     12.00       0.0
  23701010             JUNCTION            897.92     12.00       0.0
  23701011             JUNCTION            901.98     10.00       0.0    Yes
  23701016             JUNCTION            896.61     10.00       0.0    Yes
  23701017             JUNCTION            894.06     14.00       0.0    Yes
  23701018             JUNCTION            892.94     11.00       0.0
  23701019             JUNCTION            892.13      9.00       0.0    Yes
  23701023             JUNCTION            913.82      7.00       0.0    Yes
  23701029             JUNCTION            907.11     10.00       0.0    Yes
  23701032             JUNCTION            896.21     10.00       0.0
  23701034             JUNCTION            897.05      8.00       0.0    Yes
  23701035             JUNCTION            891.33      6.00       0.0    Yes
  23701040             JUNCTION            876.29     10.00       0.0
  23702010             JUNCTION            862.74     15.00       0.0
  23702011             JUNCTION            863.06     15.00       0.0    Yes
  23702013             JUNCTION            860.88     17.00       0.0
  23702014             JUNCTION            865.32     13.00       0.0
  23702015             JUNCTION            868.22     12.00       0.0    Yes
  23702026             JUNCTION            862.12     20.00       0.0
  23702027             JUNCTION            867.19     12.00       0.0    Yes
  23702028             JUNCTION            878.49      9.00       0.0
  23702029             JUNCTION            888.71      9.00       0.0
  23702030             JUNCTION            862.32     17.00       0.0
  23702031             JUNCTION            863.78     17.00       0.0
  23702032             JUNCTION            866.27     18.00       0.0    Yes
  23702036             JUNCTION            867.89     17.00       0.0    Yes
  23702037             JUNCTION            874.58      8.00       0.0    Yes
  23702038             JUNCTION            874.35     15.00       0.0
  23702039             JUNCTION            876.35     15.00       0.0    Yes
  23702040             JUNCTION            878.82     15.00       0.0
  23702045             JUNCTION            863.81     12.00       0.0    Yes
  23702051             JUNCTION            860.97     10.00       0.0
  23702052             JUNCTION            861.06     10.00       0.0
  23703001             JUNCTION            901.01      8.00       0.0
  23703002             JUNCTION            911.02      7.00       0.0
  23703003             JUNCTION            913.80      8.00       0.0    Yes
  23707003             JUNCTION            885.51     13.00       0.0    Yes
  23707004             JUNCTION            882.68      7.00       0.0
  23707005             JUNCTION            879.19     10.00       0.0    Yes
  23707006             JUNCTION            877.72      8.00       0.0
  23707007             JUNCTION            890.83      5.00       0.0    Yes
  23707008             JUNCTION            887.93      9.00       0.0    Yes
  23707011             JUNCTION            893.24      8.00       0.0    Yes
  23707014             JUNCTION            884.52     14.00       0.0    Yes
  23707015             JUNCTION            890.03     13.00       0.0    Yes
  23708023             JUNCTION            892.89     17.00       0.0
  23708024             JUNCTION            895.33     16.00       0.0    Yes
  23708025             JUNCTION            893.84     17.00       0.0
  23708026             JUNCTION            895.74     15.00       0.0
  23708027             JUNCTION            898.30     10.00       0.0    Yes
  23708030             JUNCTION            900.24     14.00       0.0    Yes
  23801001             JUNCTION            825.75     15.00       0.0    Yes
  23801003             JUNCTION            820.83     21.00       0.0    Yes
  23801005             JUNCTION            821.68     18.00       0.0
  23801007             JUNCTION            848.95      7.00       0.0    Yes
  23801008             JUNCTION            848.47      7.00       0.0
  23801009             JUNCTION            847.09     15.00       0.0    Yes
  23801010             JUNCTION            845.66     19.00       0.0
  23801011             JUNCTION            840.40      8.00       0.0    Yes
  23801012             JUNCTION            833.81      8.00       0.0
  23801013             JUNCTION            823.40     18.00       0.0    Yes
  23801014             JUNCTION            857.89      8.00       0.0    Yes
  23801015             JUNCTION            849.75     11.00       0.0
  23801016             JUNCTION            841.49      8.00       0.0
  23801017             JUNCTION            829.65     14.00       0.0
  23801018             JUNCTION            824.86     17.00       0.0
  23801020             JUNCTION            852.44     12.00       0.0    Yes
  23801022             JUNCTION            845.78     16.00       0.0
  23801025             JUNCTION            842.79     11.00       0.0    Yes
  23801026             JUNCTION            829.73     13.00       0.0    Yes
  23801027             JUNCTION            825.25     17.00       0.0
  23801028             JUNCTION            826.42     20.00       0.0
  23801029             JUNCTION            835.32     10.00       0.0    Yes
  23801032             JUNCTION            821.95     20.00       0.0    Yes
  23802012             JUNCTION            859.87     12.00       0.0    Yes
  23807002             JUNCTION            831.45     19.00       0.0
  23807003             JUNCTION            836.36     12.00       0.0
  23807004             JUNCTION            839.00     10.00       0.0    Yes
  23807011             JUNCTION            835.26     19.00       0.0
  23807012             JUNCTION            836.74     18.00       0.0
  23807013             JUNCTION            837.75     19.00       0.0    Yes
  23807017             JUNCTION            852.74     13.00       0.0    Yes
  23807018             JUNCTION            847.59     13.00       0.0    Yes
  23807020             JUNCTION            842.05     15.00       0.0    Yes
  23807022             JUNCTION            836.02     10.00       0.0
  23807028             JUNCTION            833.72     10.00       0.0    Yes
  23807031             JUNCTION            844.00     15.00       0.0    Yes
  23807037             JUNCTION            844.91     14.00       0.0
  23808005             JUNCTION            858.04      9.00       0.0    Yes
  23808006             JUNCTION            845.20      8.00       0.0
  23808012             JUNCTION            849.18     12.00       0.0    Yes
  23808013             JUNCTION            879.85     11.00       0.0    Yes
  23808016             JUNCTION            849.49     10.00       0.0    Yes
  23808017             JUNCTION            848.45     10.00       0.0
  23808018             JUNCTION            845.57      7.00       0.0
  23808019             JUNCTION            827.44     16.00       0.0    Yes
  23808020             JUNCTION            830.79     12.00       0.0
  23808021             JUNCTION            836.72      9.00       0.0
  23808022             JUNCTION            840.89     21.00       0.0
  23808023             JUNCTION            842.73     22.00       0.0
  23808024             JUNCTION            854.19     12.00       0.0    Yes
  23808025             JUNCTION            859.38     12.00       0.0    Yes
  23808030             JUNCTION            876.60      9.00       0.0    Yes
  23808031             JUNCTION            837.65     15.00       0.0
  23808032             JUNCTION            830.76     17.00       0.0    Yes
  23809002             JUNCTION            850.60     15.00       0.0
  23809003             JUNCTION            867.58      8.00       0.0    Yes
  23809004             JUNCTION            865.28     12.00       0.0    Yes
  23809005             JUNCTION            863.24     15.00       0.0    Yes
  23809006             JUNCTION            862.30     16.00       0.0
  23809013             JUNCTION            850.76      7.00       0.0
  23809014             JUNCTION            854.16     17.00       0.0    Yes
  23809015             JUNCTION            857.50     10.00       0.0    Yes
  23809019             JUNCTION            855.83     10.00       0.0    Yes
  23809026             JUNCTION            864.88     12.00       0.0    Yes
  23809027             JUNCTION            870.41     12.00       0.0    Yes
  23809028             JUNCTION            875.63     13.00       0.0    Yes
  23809042             JUNCTION            853.58     10.00       0.0
  23809049             JUNCTION            850.76      8.00       0.0    Yes
  23809050             JUNCTION            850.70     10.00       0.0
  23809053             JUNCTION            859.94     10.00       0.0    Yes
  23810003             JUNCTION            853.02     12.00       0.0    Yes
  23810008             JUNCTION            839.38     21.00       0.0
  23810009             JUNCTION            840.46     24.00       0.0    Yes
  23810010             JUNCTION            844.27     19.00       0.0
  23810011             JUNCTION            846.37     21.00       0.0    Yes
  23810012             JUNCTION            848.61     23.00       0.0    Yes
  23810013             JUNCTION            850.69     24.00       0.0
  23810014             JUNCTION            845.63     10.00       0.0    Yes
  23810015             JUNCTION            851.94     12.00       0.0
  23810016             JUNCTION            859.07     13.00       0.0    Yes
  23810017             JUNCTION            865.49     13.00       0.0
  23810018             JUNCTION            871.93     14.00       0.0
  23810019             JUNCTION            847.26     11.00       0.0    Yes
  23810022             JUNCTION            849.04      9.00       0.0
  23810023             JUNCTION            850.78      8.00       0.0
  23810024             JUNCTION            855.38      6.00       0.0
  23810025             JUNCTION            856.14     10.00       0.0
  23810026             JUNCTION            857.62     10.00       0.0    Yes
  23810031             JUNCTION            848.74     10.00       0.0
  23810032             JUNCTION            845.15     17.00       0.0
  23810033             JUNCTION            850.75     26.00       0.0
  23811003             JUNCTION            877.60     14.00       0.0    Yes
  23811004             JUNCTION            884.74     15.00       0.0
  23811005             JUNCTION            887.02     18.00       0.0    Yes
  23811028             JUNCTION            877.73     11.00       0.0    Yes
  23811029             JUNCTION            887.11     13.00       0.0    Yes
  23814006             JUNCTION            886.26     14.00       0.0    Yes
  23814009             JUNCTION            880.52     15.00       0.0    Yes
  23814010             JUNCTION            883.48     18.00       0.0
  23815002             JUNCTION            880.67     15.00       0.0    Yes
  23815003             JUNCTION            882.98     14.00       0.0    Yes
  23815004             JUNCTION            884.31     14.00       0.0    Yes
  23815005             JUNCTION            885.34     14.00       0.0    Yes
  23815008             JUNCTION            880.22     14.00       0.0
  23815009             JUNCTION            870.13     12.00       0.0    Yes
  23815010             JUNCTION            863.15     12.00       0.0
  23815014             JUNCTION            851.91     21.00       0.0    Yes
  23815015             JUNCTION            854.22     21.00       0.0    Yes
  23815016             JUNCTION            857.22     22.00       0.0    Yes
  23815017             JUNCTION            859.59     16.00       0.0
  23815018             JUNCTION            859.73     12.00       0.0    Yes
  23815019             JUNCTION            855.58     12.00       0.0
  23815020             JUNCTION            853.08     18.00       0.0
  23815021             JUNCTION            855.84      7.00       0.0    Yes
  23815022             JUNCTION            857.94      8.00       0.0
  23815023             JUNCTION            859.48     12.00       0.0    Yes
  23815024             JUNCTION            861.19     18.00       0.0
  23815025             JUNCTION            859.10     11.00       0.0    Yes
  23815026             JUNCTION            868.28     11.00       0.0
  23815029             JUNCTION            876.74     12.00       0.0
  23815030             JUNCTION            873.51     13.00       0.0    Yes
  23815031             JUNCTION            869.87     12.00       0.0
  23815032             JUNCTION            867.97     12.00       0.0    Yes
  23815033             JUNCTION            866.39     13.00       0.0
  23815038             JUNCTION            852.60     10.00       0.0
  23816003             JUNCTION            861.91     10.00       0.0
  23816006             JUNCTION            864.48      9.00       0.0    Yes
  23816011             JUNCTION            865.00     15.00       0.0
  23816014             JUNCTION            868.14     11.00       0.0
  23816015             JUNCTION            870.41      5.00       0.0
  23816016             JUNCTION            874.49     10.00       0.0
  23816017             JUNCTION            884.69      7.00       0.0
  23816018             JUNCTION            886.62      7.00       0.0
  23816036             JUNCTION            867.25     15.00       0.0
  23816037             JUNCTION            866.00     14.00       0.0    Yes
  23916007             JUNCTION            816.91     23.00       0.0
  23916008             JUNCTION            826.94     12.00       0.0    Yes
  23916014             JUNCTION            838.65     15.00       0.0    Yes
  23916015             JUNCTION            818.26     23.00       0.0    Yes
  23916016             JUNCTION            827.15     14.00       0.0
  23916017             JUNCTION            830.19     13.00       0.0    Yes
  23916025             JUNCTION            831.99     11.00       0.0    Yes
  23916026             JUNCTION            819.77     23.00       0.0    Yes
  23916027             JUNCTION            828.57     13.00       0.0    Yes
  23916003             OUTFALL             815.23      8.00       0.0    Yes
  
  
  ************
  Link Summary
  ************
  Name             From Node        To Node          Type            Length    %Slope Roughness
  ---------------------------------------------------------------------------------------------
  20704016-20704017 20704016         20704017         CONDUIT          229.4    1.5303    0.0150
  20704017-20704018 20704017         20704018         CONDUIT          230.4    4.3143    0.0150
  20704018-20704025 20704018         20704025         CONDUIT          229.5    4.8868    0.0150
  20704025-23916025 20704025         23916025         CONDUIT          230.8    6.3036    0.0150
  20712009-20712010 20712009         20712010         CONDUIT          229.6    5.9920    0.0150
  20712010-20712011 20712010         20712011         CONDUIT          189.1    6.0495    0.0150
  20712011-23809003 20712011         23809003         CONDUIT          171.8    1.6882    0.0150
  20713008-23816017 20713008         23816017         CONDUIT          269.5    5.1644    0.0150
  23701001-23701040 23701001         23701040         CONDUIT           36.6   16.2395    0.0150
  23701005-23701001 23701005         23701001         CONDUIT          291.3    2.3313    0.0150
  23701006-23701005 23701006         23701005         CONDUIT           80.4    2.5764    0.0150
  23701007-23701006 23701007         23701006         CONDUIT           45.6    2.3237    0.0150
  23701008-23701007 23701008         23701007         CONDUIT          129.5    1.6068    0.0150
  23701009-23701008 23701009         23701008         CONDUIT          137.1    2.1159    0.0150
  23701010-23701009 23701010         23701009         CONDUIT           22.1    2.3557    0.0150
  23701011-23701010 23701011         23701010         CONDUIT          118.5    3.4276    0.0150
  23701016-23701032 23701016         23701032         CONDUIT           15.1    2.6587    0.0150
  23701017-23701018 23701017         23701018         CONDUIT          130.2    0.8602    0.0150
  23701018-23701019 23701018         23701019         CONDUIT          178.0    0.4551    0.0150
  23701019-23701006 23701019         23701006         CONDUIT           13.4    3.0588    0.0150
  23701023-23701009 23701023         23701009         CONDUIT          278.1    3.8977    0.0150
  23701029-23701011 23701029         23701011         CONDUIT          147.6    3.4789    0.0150
  23701032-23701035 23701032         23701035         CONDUIT          242.3    2.0144    0.0150
  23701034-23816018 23701034         23816018         CONDUIT          248.7    4.1975    0.0150
  23701035-23701005 23701035         23701005         CONDUIT           21.6    9.7685    0.0150
  23701040-23816016 23701040         23816016         CONDUIT          161.6    0.8230    0.0150
  23702010-23815024 23702010         23815024         CONDUIT          206.3    0.7512    0.0150
  23702011-23702010 23702011         23702010         CONDUIT           59.6    0.5373    0.0150
  23702013-23815017 23702013         23815017         CONDUIT          148.3    0.8696    0.0150
  23702014-23702013 23702014         23702013         CONDUIT           35.0    7.7307    0.0150
  23702015-23702014 23702015         23702014         CONDUIT           87.9    3.3002    0.0150
  23702026-23702052 23702026         23702052         CONDUIT          112.7    0.9403    0.0150
  23807002-23808032 23807002         23808032         CONDUIT          106.7    0.6467    0.0150
  23807003-23807002 23807003         23807002         CONDUIT           16.9    2.4325    0.0150
  23807004-23807003 23807004         23807003         CONDUIT           45.0    3.1092    0.0150
  23702027-23702026 23702027         23702026         CONDUIT           35.4   11.9234    0.0150
  23702028-23702027 23702028         23702027         CONDUIT          187.7    6.0299    0.0150
  23702029-23702028 23702029         23702028         CONDUIT          191.6    5.3408    0.0150
  23702030-23702026 23702030         23702026         CONDUIT           18.6    1.0724    0.0150
  23702031-23702030 23702031         23702030         CONDUIT          205.6    0.7101    0.0150
  23702032-23702031 23702032         23702031         CONDUIT          106.1    2.3486    0.0150
  23702036-23702032 23702036         23702032         CONDUIT           64.8    2.5012    0.0150
  23702037-23702036 23702037         23702036         CONDUIT          257.6    2.3339    0.0150
  23702038-23702036 23702038         23702036         CONDUIT          171.1    3.7783    0.0150
  23702039-23702038 23702039         23702038         CONDUIT           70.2    2.8489    0.0150
  23702040-23702039 23702040         23702039         CONDUIT           97.9    2.5243    0.0150
  23702045-23815017 23702045         23815017         CONDUIT           25.8    7.6941    0.0150
  23702051-23702013 23702051         23702013         CONDUIT           10.0    0.9000    0.0150
  23702052-23702051 23702052         23702051         CONDUIT            9.4    0.9575    0.0150
  23703001-23702029 23703001         23702029         CONDUIT          209.5    5.8801    0.0150
  23703002-23703001 23703002         23703001         CONDUIT          167.6    5.9840    0.0150
  23703003-23703002 23703003         23703002         CONDUIT           90.4    3.0753    0.0150
  23707003-23707004 23707003         23707004         CONDUIT          179.2    1.5793    0.0150
  23707004-23707005 23707004         23707005         CONDUIT          186.4    1.8730    0.0150
  23707005-23707006 23707005         23707006         CONDUIT           78.2    1.8792    0.0150
  23707006-23702037 23707006         23702037         CONDUIT          198.7    1.5809    0.0150
  23707007-23707006 23707007         23707006         CONDUIT          327.0    4.0125    0.0150
  23707008-23707003 23707008         23707003         CONDUIT          172.1    1.2956    0.0150
  23707011-23707008 23707011         23707008         CONDUIT          321.4    1.3816    0.0150
  23707014-23702040 23707014         23702040         CONDUIT          177.9    3.2061    0.0150
  23707015-23707014 23707015         23707014         CONDUIT          173.0    3.1864    0.0150
  23708023-23707008 23708023         23707008         CONDUIT          319.1    1.5671    0.0150
  23708024-23708023 23708024         23708023         CONDUIT           38.4    1.5102    0.0150
  23708025-23708023 23708025         23708023         CONDUIT           35.0    2.7122    0.0150
  23708026-23708023 23708026         23708023         CONDUIT           38.2    0.8906    0.0150
  23708026-23708025 23708026         23708025         CONDUIT           15.5    1.6173    0.0150
  23708027-23708026 23708027         23708026         CONDUIT          272.2    0.9404    0.0150
  23708030-23708027 23708030         23708027         CONDUIT          155.2    1.2503    0.0150
  23801001-23801003 23801001         23801003         CONDUIT          251.9    0.2977    0.0150
  23801003-23916026 23801003         23916026         CONDUIT          170.8    0.6206    0.0150
  23801005-23801003 23801005         23801003         CONDUIT          135.7    0.6264    0.0150
  23801007-23801008 23801007         23801008         CONDUIT           36.2    1.3261    0.0150
  23801008-23801009 23801008         23801009         CONDUIT          131.0    1.0538    0.0150
  23801009-23801010 23801009         23801010         CONDUIT          137.9    1.0372    0.0150
  23801010-23801011 23801010         23801011         CONDUIT          232.3    2.2651    0.0150
  23801011-23801012 23801011         23801012         CONDUIT          200.5    3.2892    0.0150
  23801012-23801013 23801012         23801013         CONDUIT          109.4    5.8153    0.0150
  23801013-23801032 23801013         23801032         CONDUIT          263.3    0.5508    0.0150
  23801014-23801015 23801014         23801015         CONDUIT          175.3    4.6490    0.0150
  23801015-23801016 23801015         23801016         CONDUIT          178.5    4.6316    0.0150
  23801016-23801017 23801016         23801017         CONDUIT          222.2    3.1693    0.0150
  23801017-23801018 23801017         23801018         CONDUIT           18.9   26.1549    0.0150
  23801018-23801013 23801018         23801013         CONDUIT          235.2    0.6207    0.0150
  23801020-23801022 23801020         23801022         CONDUIT          148.6    4.4872    0.0150
  23801022-23801025 23801022         23801025         CONDUIT          149.5    2.0005    0.0150
  23801025-23801026 23801025         23801026         CONDUIT          197.0    4.7006    0.0150
  23801026-23801027 23801026         23801027         CONDUIT          100.0    4.4845    0.0070
  23801027-23801018 23801027         23801018         CONDUIT          100.0    0.0600    0.0050
  23801028-23801027 23801028         23801027         CONDUIT          246.9    0.4739    0.0150
  23801029-23801028 23801029         23801028         CONDUIT           97.5    1.7748    0.0150
  23801032-23801005 23801032         23801005         CONDUIT           40.2    0.6715    0.0150
  23802012-23807017 23802012         23807017         CONDUIT          260.6    2.6715    0.0150
  23807011-23807028 23807011         23807028         CONDUIT          239.5    0.6430    0.0150
  23807012-23807022 23807012         23807022         CONDUIT          139.3    0.5171    0.0150
  23807013-23807012 23807013         23807012         CONDUIT          179.9    0.5613    0.0150
  23807017-23807018 23807017         23807018         CONDUIT          178.2    2.8461    0.0150
  23807018-23807037 23807018         23807037         CONDUIT           79.3    3.2805    0.0150
  23807020-23807022 23807020         23807022         CONDUIT           22.7    0.5293    0.0150
  23807022-23807011 23807022         23807011         CONDUIT          147.7    0.5144    0.0150
  23807028-23807002 23807028         23807002         CONDUIT          353.6    0.6420    0.0150
  23807031-23807012 23807031         23807012         CONDUIT           41.5    0.3618    0.0150
  23807037-23807020 23807037         23807020         CONDUIT           40.4    7.1059    0.0150
  23808005-23808006 23808005         23808006         CONDUIT          223.6    5.7509    0.0150
  23808006-23808031 23808006         23808031         CONDUIT          103.1    4.2631    0.0150
  23808012-23808022 23808012         23808022         CONDUIT           45.3   10.4587    0.0150
  23808013-23808030 23808013         23808030         CONDUIT          103.4    3.1453    0.0150
  23808016-23808017 23808016         23808017         CONDUIT           38.4    2.7093    0.0150
  23808017-23808018 23808017         23808018         CONDUIT          260.5    1.1058    0.0150
  23808018-23808023 23808018         23808023         CONDUIT          253.7    1.1195    0.0150
  23808019-23801028 23808019         23801028         CONDUIT          148.4    0.6872    0.0150
  23808020-23808019 23808020         23808019         CONDUIT           69.2    1.8366    0.0150
  23808021-23808020 23808021         23808020         CONDUIT          221.0    1.8507    0.0150
  23808022-23808031 23808022         23808031         CONDUIT          166.3    1.9482    0.0150
  23808023-23808022 23808023         23808022         CONDUIT          131.2    1.4024    0.0150
  23808024-23808023 23808024         23808023         CONDUIT           36.5   19.9698    0.0150
  23808025-23808024 23808025         23808024         CONDUIT          164.5    3.1572    0.0150
  23808030-23809003 23808030         23809003         CONDUIT          271.1    3.1152    0.0150
  23808031-23808021 23808031         23808021         CONDUIT           51.0    1.8220    0.0150
  23808032-23808019 23808032         23808019         CONDUIT          436.5    0.5086    0.0150
  23809002-23808016 23809002         23808016         CONDUIT          154.7    0.7174    0.0150
  23809003-23809004 23809003         23809004         CONDUIT          173.9    1.3225    0.0150
  23809004-23809005 23809004         23809005         CONDUIT          168.1    1.2134    0.0150
  23809005-23809006 23809005         23809006         CONDUIT           28.0    3.3578    0.0150
  23809006-23809049 23809006         23809049         CONDUIT          191.1    5.9764    0.0150
  23809013-23809049 23809013         23809049         CONDUIT            4.4    0.0227    0.0150
  23809014-23809042 23809014         23809042         CONDUIT           53.4    1.0866    0.0150
  23809015-23809019 23809015         23809019         CONDUIT          156.9    1.0643    0.0150
  23809019-23809014 23809019         23809014         CONDUIT          157.4    1.0611    0.0150
  23809026-23808025 23809026         23808025         CONDUIT          173.0    3.1815    0.0150
  23809027-23809026 23809027         23809026         CONDUIT          172.5    3.2076    0.0150
  23809028-23809027 23809028         23809027         CONDUIT          169.1    3.0879    0.0150
  23809042-23809013 23809042         23809013         CONDUIT          258.8    1.0897    0.0150
  23809049-23809050 23809049         23809050         CONDUIT            2.5    0.0395    0.0150
  23809050-23809002 23809050         23809002         CONDUIT           24.5    0.0041    0.0150
  23809053-23809015 23809053         23809015         CONDUIT          163.7    1.4909    0.0150
  23810003-23810010 23810003         23810010         CONDUIT           26.4    4.7438    0.0150
  23810008-23807013 23810008         23807013         CONDUIT          242.4    0.6725    0.0150
  23810009-23810008 23810009         23810008         CONDUIT          238.4    0.4529    0.0150
  23810010-23810009 23810010         23810009         CONDUIT           37.5    1.8146    0.0150
  23810011-23810010 23810011         23810010         CONDUIT          230.6    0.9108    0.0150
  23810012-23810011 23810012         23810011         CONDUIT          242.7    0.9232    0.0150
  23810013-23810012 23810013         23810012         CONDUIT          236.4    0.8797    0.0150
  23810014-23810032 23810014         23810032         CONDUIT           64.5    0.7446    0.0150
  23810015-23810014 23810015         23810014         CONDUIT           40.2   10.7944    0.0150
  23810016-23810015 23810016         23810015         CONDUIT          169.6    4.2080    0.0150
  23810017-23810016 23810017         23810016         CONDUIT          162.2    3.9622    0.0150
  23810018-23810017 23810018         23810017         CONDUIT          161.8    3.9841    0.0150
  23810019-23810014 23810019         23810014         CONDUIT          216.2    0.7538    0.0150
  23810022-23810031 23810022         23810031         CONDUIT           33.4    0.8988    0.0150
  23810023-23810033 23810023         23810033         CONDUIT           11.8    0.2534    0.0150
  23810024-23810033 23810024         23810033         CONDUIT           23.3   12.4778    0.0150
  23810025-23810024 23810025         23810024         CONDUIT          144.0    0.5277    0.0150
  23810026-23810025 23810026         23810025         CONDUIT           41.9    3.4610    0.0150
  23810031-23810019 23810031         23810019         CONDUIT          163.0    0.9081    0.0150
  23810032-23810009 23810032         23810009         CONDUIT          103.7    1.0222    0.0150
  23810033-23810022 23810033         23810022         CONDUIT          183.4    0.9322    0.0150
  23811003-23810018 23811003         23810018         CONDUIT          162.1    3.5002    0.0150
  23811004-23811003 23811004         23811003         CONDUIT          159.1    4.4920    0.0150
  23811005-23811004 23811005         23811004         CONDUIT          144.4    1.3643    0.0150
  23811028-23815026 23811028         23815026         CONDUIT          180.0    5.2564    0.0150
  23811029-23811028 23811029         23811028         CONDUIT          188.8    4.9738    0.0150
  23814006-23814010 23814006         23814010         CONDUIT          159.0    1.7490    0.0150
  23814009-23815029 23814009         23815029         CONDUIT          161.0    2.1304    0.0150
  23814010-23814009 23814010         23814009         CONDUIT          162.9    1.8174    0.0150
  23815002-23815008 23815002         23815008         CONDUIT           39.5    0.9356    0.0150
  23815003-23815002 23815003         23815002         CONDUIT          286.8    0.8054    0.0150
  23815004-23815003 23815004         23815003         CONDUIT          170.2    0.7170    0.0150
  23815005-23815004 23815005         23815004         CONDUIT          170.1    0.6056    0.0150
  23815008-23815009 23815008         23815009         CONDUIT          252.1    4.0053    0.0150
  23815009-23815010 23815009         23815010         CONDUIT          164.6    4.0446    0.0150
  23815010-23810013 23815010         23810013         CONDUIT           32.6    4.9094    0.0150
  23815014-23810013 23815014         23810013         CONDUIT          139.5    0.8745    0.0150
  23815015-23815014 23815015         23815014         CONDUIT          249.4    0.9182    0.0150
  23815016-23815015 23815016         23815015         CONDUIT          339.2    0.8845    0.0150
  23815017-23815016 23815017         23815016         CONDUIT          268.1    0.8840    0.0150
  23815018-23815019 23815018         23815019         CONDUIT          100.1    4.1094    0.0150
  23815019-23815038 23815019         23815038         CONDUIT           50.4    4.0542    0.0150
  23815020-23815038 23815020         23815038         CONDUIT           38.5    1.2452    0.0150
  23815021-23815020 23815021         23815020         CONDUIT          215.7    1.2334    0.0150
  23815022-23815021 23815022         23815021         CONDUIT          210.7    0.9968    0.0150
  23815023-23815022 23815023         23815022         CONDUIT          176.9    0.8703    0.0150
  23815024-23815023 23815024         23815023         CONDUIT          207.2    0.8253    0.0150
  23815025-23810026 23815025         23810026         CONDUIT          174.5    0.8484    0.0150
  23815026-23815025 23815026         23815025         CONDUIT          180.7    4.8593    0.0150
  23815029-23815030 23815029         23815030         CONDUIT          161.7    1.9978    0.0150
  23815030-23815031 23815030         23815031         CONDUIT          170.8    2.1315    0.0150
  23815031-23815032 23815031         23815032         CONDUIT          100.2    1.8967    0.0150
  23815032-23815033 23815032         23815033         CONDUIT           56.6    2.7936    0.0150
  23815033-23815024 23815033         23815024         CONDUIT           50.3    8.6290    0.0150
  23815038-23810023 23815038         23810023         CONDUIT          155.3    1.1716    0.0150
  23816003-23809053 23816003         23809053         CONDUIT          132.9    1.4828    0.0150
  23816006-23816003 23816006         23816003         CONDUIT          172.2    1.4926    0.0150
  23816011-23816006 23816011         23816006         CONDUIT          140.7    0.3697    0.0150
  23816014-23816036 23816014         23816036         CONDUIT           82.8    1.0752    0.0150
  23816015-23816014 23816015         23816014         CONDUIT          207.9    1.0921    0.0150
  23816016-23816015 23816016         23816015         CONDUIT          187.1    2.1811    0.0150
  23816017-23816014 23816017         23816014         CONDUIT          286.5    5.3655    0.0150
  23816018-23816016 23816018         23816016         CONDUIT          246.7    4.9235    0.0150
  23816036-23816037 23816036         23816037         CONDUIT           99.7    1.2542    0.0150
  23816037-23816011 23816037         23816011         CONDUIT           37.0    2.7037    0.0150
  23916007-23916003 23916007         23916003         CONDUIT            1.9  199.0991    0.0190
  23916008-23916007 23916008         23916007         CONDUIT            4.2  143.7500    0.0150
  23916014-23916015 23916014         23916015         CONDUIT          171.8    6.7433    0.0150
  23916015-23916007 23916015         23916007         CONDUIT          269.6    0.5008    0.0150
  23916016-23916015 23916016         23916015         CONDUIT           49.9    9.0107    0.0150
  23916017-23916016 23916017         23916016         CONDUIT          113.2    2.5368    0.0150
  23916025-23916026 23916025         23916026         CONDUIT          198.2    1.9223    0.0150
  23916026-23916015 23916026         23916015         CONDUIT          263.4    0.5734    0.0150
  23916027-23916026 23916027         23916026         CONDUIT           44.3   10.4981    0.0150
  
  
  *********************
  Cross Section Summary
  *********************
                                        Full     Full     Hyd.     Max.   No. of     Full
  Conduit          Shape               Depth     Area     Rad.    Width  Barrels     Flow
  ---------------------------------------------------------------------------------------
  20704016-20704017 CIRCULAR             1.00     0.79     0.25     1.00        1     3.82
  20704017-20704018 CIRCULAR             1.00     0.79     0.25     1.00        1     6.41
  20704018-20704025 CIRCULAR             1.00     0.79     0.25     1.00        1     6.83
  20704025-23916025 CIRCULAR             1.00     0.79     0.25     1.00        1     7.75
  20712009-20712010 CIRCULAR             1.00     0.79     0.25     1.00        1     7.56
  20712010-20712011 CIRCULAR             1.00     0.79     0.25     1.00        1     7.59
  20712011-23809003 CIRCULAR             1.25     1.23     0.31     1.25        1     7.27
  20713008-23816017 CIRCULAR             1.00     0.79     0.25     1.00        1     7.02
  23701001-23701040 CIRCULAR             2.00     3.14     0.50     2.00        1    79.01
  23701005-23701001 CIRCULAR             2.00     3.14     0.50     2.00        1    29.94
  23701006-23701005 CIRCULAR             2.00     3.14     0.50     2.00        1    31.47
  23701007-23701006 CIRCULAR             2.00     3.14     0.50     2.00        1    29.89
  23701008-23701007 CIRCULAR             1.75     2.41     0.44     1.75        1    17.41
  23701009-23701008 CIRCULAR             1.75     2.41     0.44     1.75        1    19.98
  23701010-23701009 CIRCULAR             1.50     1.77     0.38     1.50        1    13.97
  23701011-23701010 CIRCULAR             1.50     1.77     0.38     1.50        1    16.85
  23701016-23701032 CIRCULAR             1.83     2.63     0.46     1.83        1    25.23
  23701017-23701018 CIRCULAR             1.50     1.77     0.38     1.50        1     8.44
  23701018-23701019 CIRCULAR             1.50     1.77     0.38     1.50        1     6.14
  23701019-23701006 CIRCULAR             1.50     1.77     0.38     1.50        1    15.92
  23701023-23701009 CIRCULAR             1.00     0.79     0.25     1.00        1     6.10
  23701029-23701011 CIRCULAR             1.50     1.77     0.38     1.50        1    16.98
  23701032-23701035 CIRCULAR             1.75     2.41     0.44     1.75        1    19.49
  23701034-23816018 CIRCULAR             1.00     0.79     0.25     1.00        1     6.33
  23701035-23701005 CIRCULAR             2.00     3.14     0.50     2.00        1    61.28
  23701040-23816016 CIRCULAR             3.00     7.07     0.75     3.00        1    52.44
  23702010-23815024 CIRCULAR             3.50     9.62     0.88     3.50        1    75.58
  23702011-23702010 CIRCULAR             3.50     9.62     0.88     3.50        1    63.91
  23702013-23815017 CIRCULAR             5.00    19.63     1.25     5.00        1   210.49
  23702014-23702013 CIRCULAR             2.00     3.14     0.50     2.00        1    54.51
  23702015-23702014 CIRCULAR             2.00     3.14     0.50     2.00        1    35.62
  23702026-23702052 CIRCULAR             5.00    19.63     1.25     5.00        1   218.87
  23807002-23808032 CIRCULAR             7.00    38.48     1.75     7.00        1   445.23
  23807003-23807002 CIRCULAR             1.50     1.77     0.38     1.50        1    14.20
  23807004-23807003 CIRCULAR             1.50     1.77     0.38     1.50        1    16.05
  23702027-23702026 CIRCULAR             1.25     1.23     0.31     1.25        1    19.33
  23702028-23702027 CIRCULAR             1.00     0.79     0.25     1.00        1     7.58
  23702029-23702028 CIRCULAR             1.00     0.79     0.25     1.00        1     7.14
  23702030-23702026 CIRCULAR             5.00    19.63     1.25     5.00        1   233.75
  23702031-23702030 CIRCULAR             5.00    19.63     1.25     5.00        1   190.21
  23702032-23702031 CIRCULAR             5.00    19.63     1.25     5.00        1   345.91
  23702036-23702032 CIRCULAR             5.00    19.63     1.25     5.00        1   356.97
  23702037-23702036 CIRCULAR             2.75     5.94     0.69     2.75        1    70.02
  23702038-23702036 CIRCULAR             2.50     4.91     0.63     2.50        1    69.10
  23702039-23702038 CIRCULAR             2.50     4.91     0.63     2.50        1    60.00
  23702040-23702039 CIRCULAR             2.50     4.91     0.63     2.50        1    56.48
  23702045-23815017 CIRCULAR             1.50     1.77     0.38     1.50        1    25.25
  23702051-23702013 CIRCULAR             5.00    19.63     1.25     5.00        1   214.14
  23702052-23702051 CIRCULAR             5.00    19.63     1.25     5.00        1   220.87
  23703001-23702029 CIRCULAR             1.00     0.79     0.25     1.00        1     7.49
  23703002-23703001 CIRCULAR             1.00     0.79     0.25     1.00        1     7.55
  23703003-23703002 CIRCULAR             1.00     0.79     0.25     1.00        1     5.41
  23707003-23707004 CIRCULAR             2.50     4.91     0.63     2.50        1    44.67
  23707004-23707005 CIRCULAR             2.50     4.91     0.63     2.50        1    48.65
  23707005-23707006 CIRCULAR             2.50     4.91     0.63     2.50        1    48.73
  23707006-23702037 CIRCULAR             2.50     4.91     0.63     2.50        1    44.70
  23707007-23707006 CIRCULAR             1.50     1.77     0.38     1.50        1    18.24
  23707008-23707003 CIRCULAR             2.25     3.98     0.56     2.25        1    30.55
  23707011-23707008 CIRCULAR             1.50     1.77     0.38     1.50        1    10.70
  23707014-23702040 CIRCULAR             2.00     3.14     0.50     2.00        1    35.11
  23707015-23707014 CIRCULAR             2.00     3.14     0.50     2.00        1    35.00
  23708023-23707008 CIRCULAR             2.25     3.98     0.56     2.25        1    33.60
  23708024-23708023 CIRCULAR             1.50     1.77     0.38     1.50        1    11.19
  23708025-23708023 CIRCULAR             2.25     3.98     0.56     2.25        1    44.20
  23708026-23708023 CIRCULAR             2.00     3.14     0.50     2.00        1    18.50
  23708026-23708025 CIRCULAR             2.00     3.14     0.50     2.00        1    24.93
  23708027-23708026 CIRCULAR             2.00     3.14     0.50     2.00        1    19.01
  23708030-23708027 CIRCULAR             1.50     1.77     0.38     1.50        1    10.18
  23801001-23801003 CIRCULAR             2.00     3.14     0.50     2.00        1    10.70
  23801003-23916026 CIRCULAR             8.00    50.27     2.00     8.00        1   622.73
  23801005-23801003 CIRCULAR             8.00    50.27     2.00     8.00        1   625.64
  23801007-23801008 CIRCULAR             1.83     2.63     0.46     1.83        1    17.82
  23801008-23801009 CIRCULAR             1.83     2.63     0.46     1.83        1    15.88
  23801009-23801010 CIRCULAR             1.83     2.63     0.46     1.83        1    15.76
  23801010-23801011 CIRCULAR             1.83     2.63     0.46     1.83        1    23.28
  23801011-23801012 CIRCULAR             1.83     2.63     0.46     1.83        1    28.06
  23801012-23801013 CIRCULAR             2.00     3.14     0.50     2.00        1    47.28
  23801013-23801032 CIRCULAR             8.00    50.27     2.00     8.00        1   586.63
  23801014-23801015 CIRCULAR             1.00     0.79     0.25     1.00        1     6.66
  23801015-23801016 CIRCULAR             1.00     0.79     0.25     1.00        1     6.65
  23801016-23801017 CIRCULAR             1.00     0.79     0.25     1.00        1     5.50
  23801017-23801018 CIRCULAR             1.50     1.77     0.38     1.50        1    46.56
  23801018-23801013 CIRCULAR             8.00    50.27     2.00     8.00        1   622.78
  23801020-23801022 CIRCULAR             1.50     1.77     0.38     1.50        1    19.28
  23801022-23801025 CIRCULAR             1.50     1.77     0.38     1.50        1    12.88
  23801025-23801026 CIRCULAR             1.50     1.77     0.38     1.50        1    19.74
  23801026-23801027 CIRCULAR             1.50     1.77     0.38     1.50        1    41.31
  23801027-23801018 CIRCULAR             8.00    50.27     2.00     8.00        1   580.87
  23801028-23801027 CIRCULAR             8.00    50.27     2.00     8.00        1   544.16
  23801029-23801028 CIRCULAR             1.50     1.77     0.38     1.50        1    12.13
  23801032-23801005 CIRCULAR             8.00    50.27     2.00     8.00        1   647.74
  23802012-23807017 CIRCULAR             1.50     1.77     0.38     1.50        1    14.88
  23807011-23807028 CIRCULAR             7.00    38.48     1.75     7.00        1   443.96
  23807012-23807022 CIRCULAR             7.00    38.48     1.75     7.00        1   398.12
  23807013-23807012 CIRCULAR             7.00    38.48     1.75     7.00        1   414.81
  23807017-23807018 CIRCULAR             1.75     2.41     0.44     1.75        1    23.17
  23807018-23807037 CIRCULAR             2.00     3.14     0.50     2.00        1    35.51
  23807020-23807022 CIRCULAR             2.00     3.14     0.50     2.00        1    14.26
  23807022-23807011 CIRCULAR             7.00    38.48     1.75     7.00        1   397.10
  23807028-23807002 CIRCULAR             7.00    38.48     1.75     7.00        1   443.62
  23807031-23807012 CIRCULAR             2.00     3.14     0.50     2.00        1    11.79
  23807037-23807020 CIRCULAR             2.00     3.14     0.50     2.00        1    52.26
  23808005-23808006 CIRCULAR             1.50     1.77     0.38     1.50        1    21.83
  23808006-23808031 CIRCULAR             1.50     1.77     0.38     1.50        1    18.80
  23808012-23808022 CIRCULAR             1.50     1.77     0.38     1.50        1    29.44
  23808013-23808030 CIRCULAR             1.00     0.79     0.25     1.00        1     5.48
  23808016-23808017 CIRCULAR             4.00    12.57     1.00     4.00        1   204.91
  23808017-23808018 CIRCULAR             4.00    12.57     1.00     4.00        1   130.91
  23808018-23808023 CIRCULAR             4.00    12.57     1.00     4.00        1   131.72
  23808019-23801028 CIRCULAR             8.00    50.27     2.00     8.00        1   655.28
  23808020-23808019 CIRCULAR             5.00    19.63     1.25     5.00        1   305.90
  23808021-23808020 CIRCULAR             4.00    12.57     1.00     4.00        1   169.36
  23808022-23808031 CIRCULAR             4.00    12.57     1.00     4.00        1   173.76
  23808023-23808022 CIRCULAR             4.00    12.57     1.00     4.00        1   147.42
  23808024-23808023 CIRCULAR             1.50     1.77     0.38     1.50        1    40.68
  23808025-23808024 CIRCULAR             1.50     1.77     0.38     1.50        1    16.18
  23808030-23809003 CIRCULAR             1.00     0.79     0.25     1.00        1     5.45
  23808031-23808021 CIRCULAR             4.00    12.57     1.00     4.00        1   168.04
  23808032-23808019 CIRCULAR             7.00    38.48     1.75     7.00        1   394.83
  23809002-23808016 CIRCULAR             4.00    12.57     1.00     4.00        1   105.44
  23809003-23809004 CIRCULAR             1.50     1.77     0.38     1.50        1    10.47
  23809004-23809005 CIRCULAR             1.50     1.77     0.38     1.50        1    10.03
  23809005-23809006 CIRCULAR             1.50     1.77     0.38     1.50        1    16.68
  23809006-23809049 CIRCULAR             1.50     1.77     0.38     1.50        1    22.26
  23809013-23809049 CIRCULAR             4.00    12.57     1.00     4.00        1    18.75
  23809014-23809042 CIRCULAR             4.00    12.57     1.00     4.00        1   129.77
  23809015-23809019 CIRCULAR             3.00     7.07     0.75     3.00        1    59.63
  23809019-23809014 CIRCULAR             3.50     9.62     0.88     3.50        1    89.82
  23809026-23808025 CIRCULAR             1.50     1.77     0.38     1.50        1    16.24
  23809027-23809026 CIRCULAR             1.50     1.77     0.38     1.50        1    16.30
  23809028-23809027 CIRCULAR             1.50     1.77     0.38     1.50        1    16.00
  23809042-23809013 CIRCULAR             4.00    12.57     1.00     4.00        1   129.95
  23809049-23809050 CIRCULAR             4.00    12.57     1.00     4.00        1    24.75
  23809050-23809002 CIRCULAR             4.00    12.57     1.00     4.00        1     7.95
  23809053-23809015 CIRCULAR             3.00     7.07     0.75     3.00        1    70.58
  23810003-23810010 CIRCULAR             1.75     2.41     0.44     1.75        1    29.91
  23810008-23807013 CIRCULAR             7.00    38.48     1.75     7.00        1   454.02
  23810009-23810008 CIRCULAR             7.00    38.48     1.75     7.00        1   372.61
  23810010-23810009 CIRCULAR             5.00    19.63     1.25     5.00        1   304.06
  23810011-23810010 CIRCULAR             5.00    19.63     1.25     5.00        1   215.42
  23810012-23810011 CIRCULAR             5.00    19.63     1.25     5.00        1   216.87
  23810013-23810012 CIRCULAR             5.00    19.63     1.25     5.00        1   211.71
  23810014-23810032 CIRCULAR             4.00    12.57     1.00     4.00        1   107.42
  23810015-23810014 CIRCULAR             2.00     3.14     0.50     2.00        1    64.42
  23810016-23810015 CIRCULAR             2.00     3.14     0.50     2.00        1    40.22
  23810017-23810016 CIRCULAR             2.00     3.14     0.50     2.00        1    39.03
  23810018-23810017 CIRCULAR             2.00     3.14     0.50     2.00        1    39.13
  23810019-23810014 CIRCULAR             4.00    12.57     1.00     4.00        1   108.09
  23810022-23810031 CIRCULAR             4.00    12.57     1.00     4.00        1   118.02
  23810023-23810033 CIRCULAR             4.00    12.57     1.00     4.00        1    62.66
  23810024-23810033 CIRCULAR             2.00     3.14     0.50     2.00        1    69.26
  23810025-23810024 CIRCULAR             2.00     3.14     0.50     2.00        1    14.24
  23810026-23810025 CIRCULAR             2.00     3.14     0.50     2.00        1    36.47
  23810031-23810019 CIRCULAR             4.00    12.57     1.00     4.00        1   118.63
  23810032-23810009 CIRCULAR             4.50    15.90     1.13     4.50        1   172.31
  23810033-23810022 CIRCULAR             4.00    12.57     1.00     4.00        1   120.19
  23811003-23810018 CIRCULAR             2.00     3.14     0.50     2.00        1    36.68
  23811004-23811003 CIRCULAR             2.00     3.14     0.50     2.00        1    41.55
  23811005-23811004 CIRCULAR             1.50     1.77     0.38     1.50        1    10.63
  23811028-23815026 CIRCULAR             1.50     1.77     0.38     1.50        1    20.87
  23811029-23811028 CIRCULAR             1.50     1.77     0.38     1.50        1    20.30
  23814006-23814010 CIRCULAR             1.50     1.77     0.38     1.50        1    12.04
  23814009-23815029 CIRCULAR             1.50     1.77     0.38     1.50        1    13.29
  23814010-23814009 CIRCULAR             1.50     1.77     0.38     1.50        1    12.27
  23815002-23815008 CIRCULAR             1.75     2.41     0.44     1.75        1    13.28
  23815003-23815002 CIRCULAR             1.75     2.41     0.44     1.75        1    12.32
  23815004-23815003 CIRCULAR             1.50     1.77     0.38     1.50        1     7.71
  23815005-23815004 CIRCULAR             1.50     1.77     0.38     1.50        1     7.08
  23815008-23815009 CIRCULAR             1.75     2.41     0.44     1.75        1    27.48
  23815009-23815010 CIRCULAR             1.75     2.41     0.44     1.75        1    27.62
  23815010-23810013 CIRCULAR             1.75     2.41     0.44     1.75        1    30.43
  23815014-23810013 CIRCULAR             5.00    19.63     1.25     5.00        1   211.08
  23815015-23815014 CIRCULAR             5.00    19.63     1.25     5.00        1   216.28
  23815016-23815015 CIRCULAR             5.00    19.63     1.25     5.00        1   212.28
  23815017-23815016 CIRCULAR             5.00    19.63     1.25     5.00        1   212.22
  23815018-23815019 CIRCULAR             2.00     3.14     0.50     2.00        1    39.74
  23815019-23815038 CIRCULAR             2.00     3.14     0.50     2.00        1    39.48
  23815020-23815038 CIRCULAR             3.50     9.62     0.88     3.50        1    97.30
  23815021-23815020 CIRCULAR             3.50     9.62     0.88     3.50        1    96.84
  23815022-23815021 CIRCULAR             3.50     9.62     0.88     3.50        1    87.05
  23815023-23815022 CIRCULAR             3.50     9.62     0.88     3.50        1    81.35
  23815024-23815023 CIRCULAR             3.50     9.62     0.88     3.50        1    79.21
  23815025-23810026 CIRCULAR             2.00     3.14     0.50     2.00        1    18.06
  23815026-23815025 CIRCULAR             1.50     1.77     0.38     1.50        1    20.07
  23815029-23815030 CIRCULAR             2.00     3.14     0.50     2.00        1    27.71
  23815030-23815031 CIRCULAR             2.00     3.14     0.50     2.00        1    28.62
  23815031-23815032 CIRCULAR             2.00     3.14     0.50     2.00        1    27.00
  23815032-23815033 CIRCULAR             2.00     3.14     0.50     2.00        1    32.77
  23815033-23815024 CIRCULAR             2.00     3.14     0.50     2.00        1    57.59
  23815038-23810023 CIRCULAR             4.00    12.57     1.00     4.00        1   134.75
  23816003-23809053 CIRCULAR             3.00     7.07     0.75     3.00        1    70.39
  23816006-23816003 CIRCULAR             3.00     7.07     0.75     3.00        1    70.62
  23816011-23816006 CIRCULAR             3.00     7.07     0.75     3.00        1    35.15
  23816014-23816036 CIRCULAR             3.00     7.07     0.75     3.00        1    59.94
  23816015-23816014 CIRCULAR             3.00     7.07     0.75     3.00        1    60.41
  23816016-23816015 CIRCULAR             3.00     7.07     0.75     3.00        1    85.37
  23816017-23816014 CIRCULAR             1.25     1.23     0.31     1.25        1    12.97
  23816018-23816016 CIRCULAR             1.00     0.79     0.25     1.00        1     6.85
  23816036-23816037 CIRCULAR             3.00     7.07     0.75     3.00        1    64.74
  23816037-23816011 CIRCULAR             3.00     7.07     0.75     3.00        1    95.05
  23916007-23916003 CIRCULAR             8.00    50.27     2.00     8.00        1  8805.55
  23916008-23916007 CIRCULAR             1.50     1.77     0.38     1.50        1   109.15
  23916014-23916015 CIRCULAR             1.50     1.77     0.38     1.50        1    23.64
  23916015-23916007 CIRCULAR             8.00    50.27     2.00     8.00        1   559.41
  23916016-23916015 CIRCULAR             1.50     1.77     0.38     1.50        1    27.33
  23916017-23916016 CIRCULAR             1.50     1.77     0.38     1.50        1    14.50
  23916025-23916026 CIRCULAR             1.50     1.77     0.38     1.50        1    12.62
  23916026-23916015 CIRCULAR             8.00    50.27     2.00     8.00        1   598.56
  23916027-23916026 CIRCULAR             1.50     1.77     0.38     1.50        1    29.50
  
  
  
  *********************************************************
  NOTE: The summary statistics displayed in this report are
  based on results found at every computational time step,  
  not just on results from each reporting time step.
  *********************************************************
  
  ****************
  Analysis Options
  ****************
  Flow Units ............... CFS
  Process Models:
    Rainfall/Runoff ........ YES
    RDII ................... NO
    Snowmelt ............... NO
    Groundwater ............ NO
    Flow Routing ........... YES
    Ponding Allowed ........ NO
    Water Quality .......... NO
  Infiltration Method ...... HORTON
  Flow Routing Method ...... DYNWAVE
  Starting Date ............ 05/08/2002 00:00:00
  Ending Date .............. 05/09/2002 00:00:00
  Antecedent Dry Days ...... 0.0
  Report Time Step ......... 00:05:00
  Wet Time Step ............ 00:05:00
  Dry Time Step ............ 00:15:00
  Routing Time Step ........ 5.00 sec
  Variable Time Step ....... NO
  Maximum Trials ........... 8
  Number of Threads ........ 32
  Head Tolerance ........... 0.005000 ft
  
  
  **************************        Volume         Depth
  Runoff Quantity Continuity     acre-feet        inches
  **************************     ---------       -------
  Total Precipitation ......        56.492         1.283
  Evaporation Loss .........         1.072         0.024
  Infiltration Loss ........        34.578         0.785
  Surface Runoff ...........        20.069         0.456
  Final Storage ............         0.814         0.018
  Continuity Error (%) .....        -0.073
  
  
  **************************        Volume        Volume
  Flow Routing Continuity        acre-feet      10^6 gal
  **************************     ---------     ---------
  Dry Weather Inflow .......         0.000         0.000
  Wet Weather Inflow .......        20.069         6.540
  Groundwater Inflow .......         0.000         0.000
  RDII Inflow ..............         0.000         0.000
  External Inflow ..........        11.177         3.642
  External Outflow .........        31.059        10.121
  Flooding Loss ............         0.000         0.000
  Evaporation Loss .........         0.000         0.000
  Exfiltration Loss ........         0.000         0.000
  Initial Stored Volume ....         0.000         0.000
  Final Stored Volume ......         0.171         0.056
  Continuity Error (%) .....         0.053
  
  
  ********************************
  Highest Flow Instability Indexes
  ********************************
  All links are stable.
  
  
  *************************
  Routing Time Step Summary
  *************************
  Minimum Time Step           :     5.00 sec
  Average Time Step           :     5.00 sec
  Maximum Time Step           :     5.00 sec
  Percent in Steady State     :     0.00
  Average Iterations per Step :     2.00
  Percent Not Converging      :     0.00
  
  
  ***************************
  Subcatchment Runoff Summary
  ***************************
  
  --------------------------------------------------------------------------------------------------------
                            Total      Total      Total      Total      Total       Total     Peak  Runoff
                           Precip      Runon       Evap      Infil     Runoff      Runoff   Runoff   Coeff
  Subcatchment                 in         in         in         in         in    10^6 gal      CFS
  --------------------------------------------------------------------------------------------------------
  GMMC19CC0001               1.28       0.00       0.02       0.83       0.41        0.20     5.60   0.321
  GMMC19CC0002               1.28       0.00       0.03       0.71       0.53        0.04     1.17   0.410
  GMMC19CC0003               1.28       0.00       0.04       0.54       0.68        0.09     2.22   0.527
  GMMC19CC0004               1.28       0.00       0.01       1.00       0.26        0.05     1.52   0.206
  GMMC19CC0005               1.28       0.00       0.01       0.98       0.28        0.04     1.31   0.216
  GMMC19CC0006               1.28       0.00       0.02       0.83       0.41        0.12     3.37   0.323
  GMMC19CC0007               1.28       0.00       0.03       0.74       0.49        0.41     9.26   0.380
  GMMC19CC0008               1.28       0.00       0.02       0.94       0.32        0.02     0.55   0.246
  GMMC19CC0009               1.28       0.00       0.02       0.89       0.36        0.08     2.43   0.282
  GMMC19CC0010               1.28       0.00       0.02       0.93       0.33        0.02     0.54   0.254
  GMMC19CC0011               1.28       0.00       0.02       0.93       0.33        0.01     0.18   0.254
  GMMC19CC0012               1.28       0.00       0.01       1.01       0.25        0.01     0.31   0.195
  GMMC19CC0013               1.28       0.00       0.02       0.91       0.35        0.03     0.91   0.270
  GMMC19CC0014               1.28       0.00       0.03       0.68       0.55        0.03     0.84   0.433
  GMMC19CC0015               1.28       0.00       0.02       0.85       0.40        0.01     0.38   0.312
  GMMC19CC0016               1.28       0.00       0.03       0.76       0.48        0.20     4.98   0.374
  GMMC19CC0017               1.28       0.00       0.05       0.19       1.00        0.04     1.38   0.781
  GMMC19CC0018               1.28       0.00       0.02       0.79       0.46        0.04     1.16   0.356
  GMMC19CC0019               1.28       0.00       0.03       0.70       0.53        0.04     1.17   0.415
  GMMC19CC0020               1.28       0.00       0.03       0.74       0.50        0.02     0.61   0.392
  GMMC19CC0021               1.28       0.00       0.02       0.94       0.31        0.05     1.61   0.243
  GMMC19CC0022               1.28       0.00       0.03       0.67       0.57        0.01     0.35   0.445
  GMMC19CC0023               1.28       0.00       0.02       0.94       0.32        0.02     0.81   0.249
  GMMC19CC0024               1.28       0.00       0.02       0.96       0.30        0.07     2.29   0.234
  GMMC19CC0025               1.28       0.00       0.02       0.96       0.30        0.07     2.36   0.235
  GMMC19CC0026               1.28       0.00       0.01       0.97       0.28        0.03     1.08   0.222
  GMMC19CC0027               1.28       0.00       0.02       0.97       0.29        0.06     2.02   0.227
  GMMC19CC0028               1.28       0.00       0.02       0.80       0.44        0.05     1.63   0.345
  GMMC19CC0029               1.28       0.00       0.01       0.98       0.27        0.05     1.70   0.214
  GMMC19CC0030               1.28       0.00       0.02       0.93       0.32        0.01     0.38   0.252
  GMMC19CC0031               1.28       0.00       0.03       0.76       0.48        0.16     4.42   0.375
  GMMC19CC0032               1.28       0.00       0.03       0.73       0.51        0.02     0.64   0.396
  GMMC19CC0033               1.28       0.00       0.03       0.57       0.66        0.02     0.70   0.513
  GMMC19CC0034               1.28       0.00       0.01       0.99       0.27        0.02     0.79   0.212
  GMMC19CC0035               1.28       0.00       0.02       0.94       0.31        0.03     0.87   0.245
  GMMC19CC0036               1.28       0.00       0.03       0.60       0.62        0.04     1.09   0.484
  GMMC19CC0037               1.28       0.00       0.05       0.29       0.90        0.29     6.63   0.701
  GMMC19CC0038               1.28       0.00       0.03       0.64       0.59        0.16     4.25   0.461
  GMMC19CC0039               1.28       0.00       0.03       0.59       0.63        0.06     1.64   0.495
  GMMC19CC0040               1.28       0.00       0.02       0.80       0.45        0.03     1.06   0.348
  GMMC19CC0041               1.28       0.00       0.02       0.85       0.40        0.03     0.99   0.310
  GMMC19CC0042               1.28       0.00       0.02       0.91       0.34        0.01     0.35   0.268
  GMMC19CC0043               1.28       0.00       0.02       0.84       0.40        0.02     0.76   0.315
  GMMC19CC0044               1.28       0.00       0.02       0.77       0.47        0.03     1.19   0.369
  GMMC19CC0045               1.28       0.00       0.02       0.79       0.46        0.03     0.92   0.357
  GMMC19CC0046               1.28       0.00       0.02       0.82       0.42        0.18     4.43   0.329
  GMMC19CC0047               1.28       0.00       0.05       0.26       0.94        0.10     2.95   0.733
  GMMC19CC0048               1.28       0.00       0.02       0.81       0.43        0.13     3.55   0.336
  GMMC19CC0049               1.28       0.00       0.03       0.63       0.59        0.18     4.83   0.464
  GMMC19CC0050               1.28       0.00       0.04       0.44       0.77        0.10     2.76   0.597
  GMMC19CC0051               1.28       0.00       0.04       0.51       0.72        0.03     1.07   0.559
  GMMC19CC0052               1.28       0.00       0.04       0.53       0.69        0.04     1.16   0.538
  GMMC19CC0053               1.28       0.00       0.03       0.71       0.53        0.05     1.70   0.411
  GMMC19CC0054               1.28       0.00       0.03       0.56       0.67        0.02     0.70   0.519
  GMMC19CC0055               1.28       0.00       0.03       0.73       0.51        0.13     3.59   0.394
  GMMC19CC0056               1.28       0.00       0.05       0.21       0.98        0.05     1.28   0.763
  GMMC19CC0057               1.28       0.00       0.05       0.23       0.96        0.02     0.75   0.751
  GMMC19CC0058               1.28       0.00       0.02       0.78       0.46        0.04     1.13   0.356
  GMMC19CC0059               1.28       0.00       0.03       0.71       0.52        0.02     0.71   0.409
  GMMC19CC0060               1.28       0.00       0.02       0.86       0.39        0.01     0.43   0.305
  GMMC19CC0061               1.28       0.00       0.02       0.88       0.37        0.02     0.70   0.288
  GMMC19CC0062               1.28       0.00       0.02       0.88       0.37        0.06     1.97   0.288
  GMMC19CC0063               1.28       0.00       0.04       0.56       0.66        0.25     6.54   0.513
  GMMC19CC0064               1.28       0.00       0.03       0.66       0.57        0.04     1.40   0.445
  GMMC19CC0065               1.28       0.00       0.02       0.81       0.44        0.05     1.57   0.342
  GMMC19CC0066               1.28       0.00       0.01       1.01       0.26        0.01     0.37   0.200
  GMMC19CC0067               1.28       0.00       0.02       0.81       0.43        0.11     3.27   0.337
  GMMC19CC0068               1.28       0.00       0.05       0.37       0.83        0.12     3.11   0.646
  GMMC19CC0069               1.28       0.00       0.01       1.00       0.26        0.06     1.87   0.203
  GMMC19CC0070               1.28       0.00       0.01       1.00       0.26        0.05     1.52   0.206
[...]
  23916017-23916016    CONDUIT      0.94     0  10:55      4.62    0.06    0.17
  23916025-23916026    CONDUIT      1.98     0  10:55      5.21    0.16    0.27
  23916026-23916015    CONDUIT    166.84     0  11:02      9.89    0.28    0.37
  23916027-23916026    CONDUIT      1.73     0  10:55      9.11    0.06    0.16
  
  
  ***************************
  Flow Classification Summary
  ***************************
  
  -------------------------------------------------------------------------------------
                      Adjusted    ---------- Fraction of Time in Flow Class ---------- 
                       /Actual         Up    Down  Sub   Sup   Up    Down  Norm  Inlet 
  Conduit               Length    Dry  Dry   Dry   Crit  Crit  Crit  Crit  Ltd   Ctrl  
  -------------------------------------------------------------------------------------
  20704016-20704017       1.00   0.00  0.00  0.00  0.00  1.00  0.00  0.00  0.00  0.00
  20704017-20704018       1.00   0.00  0.00  0.00  0.00  1.00  0.00  0.00  0.00  0.00
  20704018-20704025       1.00   0.00  0.00  0.00  0.00  1.00  0.00  0.00  0.00  0.00
  20704025-23916025       1.00   0.00  0.00  0.00  0.00  0.00  0.00  1.00  0.00  0.00
  20712009-20712010       1.00   0.00  0.00  0.00  0.00  1.00  0.00  0.00  1.00  0.00
  20712010-20712011       1.00   0.00  0.00  0.00  0.00  0.00  0.00  1.00  0.00  0.00
  20712011-23809003       1.00   0.00  0.00  0.00  0.00  0.04  0.00  0.96  0.04  0.00
  20713008-23816017       1.00   0.00  0.00  0.00  0.00  1.00  0.00  0.00  0.00  0.00
  23701001-23701040       4.53   0.00  0.00  0.00  0.00  1.00  0.00  0.00  1.00  0.00
  23701005-23701001       1.00   0.00  0.00  0.00  0.00  1.00  0.00  0.00  0.00  0.00
  23701006-23701005       1.12   0.00  0.00  0.00  0.00  0.00  0.00  1.00  0.00  0.00
  23701007-23701006       1.92   0.00  0.00  0.00  0.00  1.00  0.00  0.00  1.00  0.00
  23701008-23701007       1.00   0.00  0.00  0.00  0.00  1.00  0.00  0.00  0.00  0.00
  23701009-23701008       1.00   0.00  0.00  0.00  0.00  1.00  0.00  0.00  1.00  0.00
  23701010-23701009       3.36   0.00  0.00  0.00  0.00  1.00  0.00  0.00  1.00  0.00
  23701011-23701010       1.00   0.00  0.00  0.00  0.00  1.00  0.00  0.00  1.00  0.00
  23701016-23701032       5.74   0.00  0.00  0.00  0.00  1.00  0.00  0.00  1.00  0.00
  23701017-23701018       1.00   0.00  0.00  0.00  1.00  0.00  0.00  0.00  1.00  0.00
  23701018-23701019       1.00   0.00  0.00  0.00  0.69  0.31  0.00  0.00  0.00  0.00
  23701019-23701006       5.95   0.00  0.00  0.00  0.00  0.01  0.00  0.99  0.01  0.00
  23701023-23701009       1.00   0.00  0.00  0.00  0.00  0.00  0.00  1.00  0.00  0.00
  23701029-23701011       1.00   0.00  0.00  0.00  0.00  1.00  0.00  0.00  1.00  0.00
  23701032-23701035       1.00   0.00  0.00  0.00  0.00  1.00  0.00  0.00  1.00  0.00
  23701034-23816018       1.00   0.00  0.00  0.00  0.00  1.00  0.00  0.00  0.00  0.00
  23701035-23701005       6.37   0.00  0.00  0.00  0.00  0.16  0.00  0.84  0.16  0.00
  23701040-23816016       1.00   0.00  0.00  0.00  0.00  0.00  0.00  1.00  0.00  0.00
  23702010-23815024       1.00   0.00  0.00  0.00  1.00  0.00  0.00  0.00  1.00  0.00
  23702011-23702010       1.45   0.00  0.00  0.00  1.00  0.00  0.00  0.00  0.00  0.00
  23702013-23815017       1.00   0.00  0.00  0.00  0.01  0.99  0.00  0.00  1.00  0.00
  23702014-23702013       3.62   0.00  0.00  0.00  0.00  0.00  0.00  1.00  0.00  0.00
  23702015-23702014       1.10   0.00  0.00  0.00  0.00  1.00  0.00  0.00  0.00  0.00
  23702026-23702052       1.06   0.00  0.00  0.00  0.00  1.00  0.00  0.00  0.11  0.00
  23807002-23808032       1.25   0.00  0.00  0.00  0.23  0.77  0.00  0.00  0.98  0.00
  23807003-23807002       4.44   0.00  0.00  0.00  0.00  0.00  0.00  1.00  0.00  0.00
  23807004-23807003       1.78   0.00  0.00  0.00  0.00  0.00  0.00  1.00  0.00  0.00
  23702027-23702026       3.12   0.00  0.00  0.00  0.00  0.00  0.00  1.00  0.00  0.00
  23702028-23702027       1.00   0.00  0.00  0.00  0.03  0.96  0.00  0.00  1.00  0.00
  23702029-23702028       1.00   0.00  0.00  0.00  0.00  1.00  0.00  0.00  0.00  0.00
  23702030-23702026       6.59   0.00  0.00  0.00  0.00  1.00  0.00  0.00  1.00  0.00
  23702031-23702030       1.00   0.00  0.00  0.00  0.00  1.00  0.00  0.00  0.00  0.00
  23702032-23702031       1.43   0.00  0.00  0.00  0.00  1.00  0.00  0.00  1.00  0.00
  23702036-23702032       2.38   0.00  0.00  0.00  0.00  1.00  0.00  0.00  1.00  0.00
  23702037-23702036       1.00   0.00  0.00  0.00  0.00  0.00  0.00  1.00  0.00  0.00
  23702038-23702036       1.00   0.00  0.00  0.00  0.00  1.00  0.00  0.00  1.00  0.00
  23702039-23702038       1.51   0.00  0.00  0.00  0.00  1.00  0.00  0.00  0.00  0.00
  23702040-23702039       1.05   0.00  0.00  0.00  0.00  1.00  0.00  0.00  1.00  0.00
  23702045-23815017       4.11   0.00  0.00  0.00  0.00  0.00  0.00  1.00  0.00  0.00
  23702051-23702013      11.80   0.00  0.00  0.00  0.01  0.99  0.00  0.00  1.00  0.00
  23702052-23702051      12.73   0.00  0.00  0.00  0.00  1.00  0.00  0.00  0.88  0.00
  23703001-23702029       1.00   0.00  0.00  0.00  0.00  1.00  0.00  0.00  0.99  0.00
  23703002-23703001       1.00   0.00  0.00  0.00  0.00  1.00  0.00  0.00  0.87  0.00
  23703003-23703002       1.00   0.00  0.00  0.00  0.00  1.00  0.00  0.00  0.00  0.00
  23707003-23707004       1.00   0.00  0.00  0.00  0.00  1.00  0.00  0.00  0.00  0.00
  23707004-23707005       1.00   0.00  0.00  0.00  0.00  1.00  0.00  0.00  1.00  0.00
  23707005-23707006       1.21   0.00  0.00  0.00  0.00  1.00  0.00  0.00  0.99  0.00
  23707006-23702037       1.00   0.00  0.00  0.00  0.00  1.00  0.00  0.00  0.00  0.00
  23707007-23707006       1.00   0.00  0.00  0.00  1.00  0.00  0.00  0.00  1.00  0.00
  23707008-23707003       1.00   0.00  0.00  0.00  0.00  0.00  0.00  1.00  0.00  0.00
  23707011-23707008       1.00   0.00  0.00  0.00  0.00  0.00  0.00  1.00  0.00  0.00
  23707014-23702040       1.00   0.00  0.00  0.00  0.00  1.00  0.00  0.00  0.46  0.00
  23707015-23707014       1.00   0.00  0.00  0.00  0.00  1.00  0.00  0.00  1.00  0.00
  23708023-23707008       1.00   0.00  0.00  0.00  0.81  0.19  0.00  0.00  1.00  0.00
  23708024-23708023       1.73   0.00  0.00  0.00  0.00  0.00  0.00  1.00  0.00  0.00
  23708025-23708023       2.80   0.00  0.00  0.00  1.00  0.00  0.00  0.00  1.00  0.00
  23708026-23708023       1.82   0.00  0.00  0.00  0.00  0.00  0.00  1.00  0.00  0.00
  23708026-23708025       5.16   0.00  0.00  0.00  0.00  0.00  0.00  1.00  0.00  0.00
  23708027-23708026       1.00   0.00  0.00  0.00  0.00  0.00  0.00  1.00  0.00  0.00
  23708030-23708027       1.00   0.00  0.00  0.00  1.00  0.00  0.00  0.00  1.00  0.00
  23801001-23801003       1.00   0.00  0.00  0.00  0.00  0.00  0.00  1.00  0.00  0.00
  23801003-23916026       1.00   0.00  0.00  0.00  0.02  0.98  0.00  0.00  1.00  0.00
  23801005-23801003       1.05   0.00  0.00  0.00  0.02  0.98  0.00  0.00  1.00  0.00
  23801007-23801008       2.00   0.00  0.00  0.00  0.75  0.25  0.00  0.00  0.99  0.00
  23801008-23801009       1.00   0.00  0.00  0.00  1.00  0.00  0.00  0.00  1.00  0.00
  23801009-23801010       1.00   0.00  0.00  0.00  0.00  1.00  0.00  0.00  0.00  0.00
  23801010-23801011       1.00   0.00  0.00  0.00  0.00  1.00  0.00  0.00  0.18  0.00
  23801011-23801012       1.00   0.00  0.00  0.00  0.00  1.00  0.00  0.00  0.00  0.00
  23801012-23801013       1.05   0.00  0.00  0.00  0.00  0.00  0.00  1.00  0.00  0.00
  23801013-23801032       1.00   0.00  0.00  0.00  0.01  0.99  0.00  0.00  0.00  0.00
  23801014-23801015       1.00   0.00  0.00  0.00  0.00  1.00  0.00  0.00  0.28  0.00
  23801015-23801016       1.00   0.00  0.00  0.00  0.00  1.00  0.00  0.00  0.99  0.00
  23801016-23801017       1.00   0.00  0.00  0.00  0.00  0.00  0.00  1.00  0.00  0.00
  23801017-23801018       8.79   0.00  0.00  0.00  1.00  0.00  0.00  0.00  1.00  0.00
  23801018-23801013       1.00   0.00  0.00  0.00  0.01  0.99  0.00  0.00  0.99  0.00
  23801020-23801022       1.00   0.00  0.00  0.00  0.00  1.00  0.00  0.00  1.00  0.00
  23801022-23801025       1.00   0.00  0.00  0.00  0.00  1.00  0.00  0.00  0.01  0.00
  23801025-23801026       1.00   0.00  0.00  0.00  0.00  0.00  0.00  1.00  0.00  0.00
  23801026-23801027       1.52   0.00  0.00  0.00  0.99  0.01  0.00  0.00  1.00  0.00
  23801027-23801018       1.38   0.00  0.00  0.00  0.00  0.00  0.00  1.00  0.00  0.00
  23801028-23801027       1.00   0.00  0.00  0.00  0.69  0.31  0.00  0.00  0.17  0.00
  23801029-23801028       1.00   0.00  0.00  0.00  0.00  0.00  0.00  1.00  0.00  0.00
  23801032-23801005       3.60   0.00  0.00  0.00  0.01  0.99  0.00  0.00  0.98  0.00
  23802012-23807017       1.00   0.00  0.00  0.00  0.00  0.00  0.00  1.00  0.00  0.00
  23807011-23807028       1.00   0.00  0.00  0.00  0.01  0.99  0.00  0.00  0.94  0.00
  23807012-23807022       1.00   0.00  0.00  0.00  0.80  0.20  0.00  0.00  1.00  0.00
  23807013-23807012       1.00   0.00  0.00  0.00  0.64  0.36  0.00  0.00  0.99  0.00
  23807017-23807018       1.00   0.00  0.00  0.00  0.00  0.00  0.00  1.00  0.00  0.00
  23807018-23807037       1.22   0.00  0.00  0.00  0.00  0.00  0.00  1.00  0.00  0.00
  23807020-23807022       2.77   0.00  0.00  0.00  0.00  0.00  0.00  1.00  0.00  0.00
  23807022-23807011       1.00   0.00  0.00  0.00  0.23  0.77  0.00  0.00  0.00  0.00
  23807028-23807002       1.00   0.00  0.00  0.00  0.01  0.99  0.00  0.00  0.89  0.00
  23807031-23807012       1.42   0.00  0.00  0.00  0.00  0.00  0.00  1.00  0.00  0.00
  23807037-23807020       3.06   0.00  0.00  0.00  0.00  1.00  0.00  0.00  1.00  0.00
  23808005-23808006       1.00   0.00  0.00  0.00  0.00  1.00  0.00  0.00  1.00  0.00
  23808006-23808031       1.00   0.00  0.00  0.00  0.00  0.00  0.00  1.00  0.00  0.00
  23808012-23808022       2.61   0.00  0.00  0.00  0.00  0.00  0.00  1.00  0.00  0.00
  23808013-23808030       1.00   0.00  0.00  0.00  0.83  0.17  0.00  0.00  1.00  0.00
  23808016-23808017       3.60   0.00  0.00  0.00  0.00  1.00  0.00  0.00  1.00  0.00
  23808017-23808018       1.00   0.00  0.00  0.00  0.00  1.00  0.00  0.00  0.08  0.00
  23808018-23808023       1.00   0.00  0.00  0.00  0.01  0.99  0.00  0.00  1.00  0.00
  23808019-23801028       1.00   0.00  0.00  0.00  0.01  0.99  0.00  0.00  1.00  0.00
  23808020-23808019       2.04   0.00  0.00  0.00  0.00  0.00  0.00  1.00  0.00  0.00
  23808021-23808020       1.00   0.00  0.00  0.00  0.00  0.00  0.00  1.00  0.00  0.00
  23808022-23808031       1.00   0.00  0.00  0.00  0.00  1.00  0.00  0.00  1.00  0.00
  23808023-23808022       1.00   0.00  0.00  0.00  0.00  1.00  0.00  0.00  0.01  0.00
  23808024-23808023       4.11   0.00  0.00  0.00  0.00  0.00  0.00  1.00  0.00  0.00
  23808025-23808024       1.00   0.00  0.00  0.00  0.00  1.00  0.00  0.00  0.00  0.00
  23808030-23809003       1.00   0.00  0.00  0.00  0.00  0.00  0.00  1.00  0.00  0.00
  23808031-23808021       2.42   0.00  0.00  0.00  0.00  1.00  0.00  0.00  0.08  0.00
  23808032-23808019       1.00   0.00  0.00  0.00  0.00  0.00  0.00  1.00  0.00  0.00
  23809002-23808016       1.00   0.00  0.00  0.00  0.00  1.00  0.00  0.00  0.00  0.00
  23809003-23809004       1.00   0.00  0.00  0.00  0.00  1.00  0.00  0.00  1.00  0.00
  23809004-23809005       1.00   0.00  0.00  0.00  0.00  1.00  0.00  0.00  0.01  0.00
  23809005-23809006       2.93   0.00  0.00  0.00  0.00  1.00  0.00  0.00  0.00  0.00
  23809006-23809049       1.00   0.00  0.00  0.00  0.99  0.00  0.00  0.01  0.99  0.00
  23809013-23809049      14.56   0.00  0.00  0.00  1.00  0.00  0.00  0.00  0.00  0.00
  23809014-23809042       2.03   0.00  0.00  0.00  0.00  1.00  0.00  0.00  0.17  0.00
  23809015-23809019       1.00   0.00  0.00  0.00  0.00  1.00  0.00  0.00  0.00  0.00
  23809019-23809014       1.00   0.00  0.00  0.00  0.01  0.99  0.00  0.00  1.00  0.00
  23809026-23808025       1.00   0.00  0.00  0.00  0.00  1.00  0.00  0.00  1.00  0.00
  23809027-23809026       1.00   0.00  0.00  0.00  0.00  1.00  0.00  0.00  1.00  0.00
  23809028-23809027       1.00   0.00  0.00  0.00  0.00  1.00  0.00  0.00  1.00  0.00
  23809042-23809013       1.00   0.00  0.00  0.00  1.00  0.00  0.00  0.00  1.00  0.00
  23809049-23809050      26.32   0.00  0.00  0.00  1.00  0.00  0.00  0.00  0.00  0.00
  23809050-23809002       2.44   0.00  0.00  0.00  0.00  0.00  0.00  1.00  0.00  0.00
  23809053-23809015       1.00   0.00  0.00  0.00  0.01  0.99  0.00  0.00  1.00  0.00
  23810003-23810010       3.78   0.00  0.00  0.00  0.00  0.00  0.00  1.00  0.00  0.00
  23810008-23807013       1.00   0.00  0.00  0.00  0.01  0.99  0.00  0.00  1.00  0.00
  23810009-23810008       1.00   0.00  0.00  0.00  0.70  0.30  0.00  0.00  0.00  0.00
  23810010-23810009       3.76   0.00  0.00  0.00  0.00  0.00  0.00  1.00  0.00  0.00
  23810011-23810010       1.00   0.00  0.00  0.00  0.01  0.99  0.00  0.00  0.04  0.00
  23810012-23810011       1.00   0.00  0.00  0.00  0.00  1.00  0.00  0.00  0.99  0.00
  23810013-23810012       1.00   0.00  0.00  0.00  0.00  1.00  0.00  0.00  0.00  0.00
  23810014-23810032       1.54   0.00  0.00  0.00  0.00  1.00  0.00  0.00  0.00  0.00
  23810015-23810014       3.55   0.00  0.00  0.00  0.00  0.00  0.00  1.00  0.00  0.00
  23810016-23810015       1.00   0.00  0.00  0.00  0.00  1.00  0.00  0.00  0.00  0.00
  23810017-23810016       1.00   0.00  0.00  0.00  0.00  1.00  0.00  0.00  1.00  0.00
  23810018-23810017       1.00   0.00  0.00  0.00  0.00  1.00  0.00  0.00  0.82  0.00
  23810019-23810014       1.00   0.00  0.00  0.00  1.00  0.00  0.00  0.00  1.00  0.00
  23810022-23810031       3.11   0.00  0.00  0.00  0.00  1.00  0.00  0.00  0.11  0.00
  23810023-23810033       6.90   0.00  0.00  0.00  1.00  0.00  0.00  0.00  0.01  0.00
  23810024-23810033       6.46   0.00  0.00  0.00  0.00  0.00  0.00  1.00  0.00  0.00
  23810025-23810024       1.00   0.00  0.00  0.00  0.00  1.00  0.00  0.00  0.00  0.00
  23810026-23810025       2.34   0.00  0.00  0.00  0.00  1.00  0.00  0.00  1.00  0.00
  23810031-23810019       1.00   0.00  0.00  0.00  0.01  0.99  0.00  0.00  1.00  0.00
  23810032-23810009       1.10   0.00  0.00  0.00  0.00  0.00  0.00  1.00  0.00  0.00
  23810033-23810022       1.00   0.00  0.00  0.00  0.00  1.00  0.00  0.00  0.99  0.00
  23811003-23810018       1.00   0.00  0.00  0.00  0.00  1.00  0.00  0.00  0.00  0.00
  23811004-23811003       1.00   0.00  0.00  0.00  0.00  1.00  0.00  0.00  1.00  0.00
  23811005-23811004       1.00   0.00  0.00  0.00  0.01  0.00  0.00  0.98  0.02  0.00
  23811028-23815026       1.00   0.00  0.00  0.00  0.00  1.00  0.00  0.00  1.00  0.00
  23811029-23811028       1.00   0.00  0.00  0.00  0.00  1.00  0.00  0.00  1.00  0.00
  23814006-23814010       1.00   0.00  0.00  0.00  0.00  1.00  0.00  0.00  0.00  0.00
  23814009-23815029       1.00   0.00  0.00  0.00  0.00  0.00  0.00  1.00  0.00  0.00
  23814010-23814009       1.00   0.00  0.00  0.00  0.00  1.00  0.00  0.00  1.00  0.00
  23815002-23815008       1.65   0.00  0.00  0.00  0.00  0.00  0.00  1.00  0.00  0.00
  23815003-23815002       1.00   0.00  0.00  0.00  1.00  0.00  0.00  0.00  1.00  0.00
  23815004-23815003       1.00   0.00  0.00  0.00  0.00  0.00  0.00  1.00  0.00  0.00
  23815005-23815004       1.00   0.00  0.00  0.00  1.00  0.00  0.00  0.00  0.99  0.00
  23815008-23815009       1.00   0.00  0.00  0.00  0.00  1.00  0.00  0.00  1.00  0.00
  23815009-23815010       1.00   0.00  0.00  0.00  0.00  0.00  0.00  1.00  0.00  0.00
  23815010-23810013       3.09   0.00  0.00  0.00  0.00  0.00  0.00  1.00  0.00  0.00
  23815014-23810013       1.00   0.00  0.00  0.00  0.00  1.00  0.00  0.00  0.99  0.00
  23815015-23815014       1.00   0.00  0.00  0.00  0.00  0.09  0.00  0.91  0.05  0.00
  23815016-23815015       1.00   0.00  0.00  0.00  0.00  1.00  0.00  0.00  0.18  0.00
  23815017-23815016       1.00   0.00  0.00  0.00  0.00  1.00  0.00  0.00  1.00  0.00
  23815018-23815019       1.03   0.00  0.00  0.00  0.00  0.00  0.00  1.00  0.00  0.00
  23815019-23815038       2.04   0.00  0.00  0.00  0.00  0.00  0.00  1.00  0.00  0.00
  23815020-23815038       2.69   0.00  0.00  0.00  0.00  1.00  0.00  0.00  0.00  0.00
  23815021-23815020       1.00   0.00  0.00  0.00  0.00  0.00  0.00  1.00  0.00  0.00
  23815022-23815021       1.00   0.00  0.00  0.00  0.00  1.00  0.00  0.00  0.00  0.00
  23815023-23815022       1.00   0.00  0.00  0.00  0.00  1.00  0.00  0.00  0.00  0.00
  23815024-23815023       1.00   0.00  0.00  0.00  0.25  0.75  0.00  0.00  0.99  0.00
  23815025-23810026       1.00   0.00  0.00  0.00  0.00  1.00  0.00  0.00  0.00  0.00
  23815026-23815025       1.00   0.00  0.00  0.00  0.00  0.01  0.00  0.99  0.01  0.00
  23815029-23815030       1.00   0.00  0.00  0.00  0.00  1.00  0.00  0.00  0.19  0.00
  23815030-23815031       1.00   0.00  0.00  0.00  0.00  1.00  0.00  0.00  0.99  0.00
  23815031-23815032       1.00   0.00  0.00  0.00  0.06  0.94  0.00  0.00  1.00  0.00
  23815032-23815033       1.63   0.00  0.00  0.00  0.00  1.00  0.00  0.00  0.00  0.00
  23815033-23815024       2.62   0.00  0.00  0.00  0.00  0.00  0.00  1.00  0.00  0.00
  23815038-23810023       1.00   0.00  0.00  0.00  0.97  0.03  0.00  0.00  1.00  0.00
  23816003-23809053       1.00   0.00  0.00  0.00  0.00  1.00  0.00  0.00  1.00  0.00
  23816006-23816003       1.00   0.00  0.00  0.00  0.00  1.00  0.00  0.00  0.91  0.00
  23816011-23816006       1.00   0.00  0.00  0.00  0.77  0.23  0.00  0.00  0.01  0.00
  23816014-23816036       1.11   0.00  0.00  0.00  0.00  1.00  0.00  0.00  0.99  0.00
  23816015-23816014       1.00   0.00  0.00  0.00  0.00  1.00  0.00  0.00  1.00  0.00
  23816016-23816015       1.00   0.00  0.00  0.00  0.00  1.00  0.00  0.00  0.99  0.00
  23816017-23816014       1.00   0.00  0.00  0.00  0.00  0.00  0.00  1.00  0.00  0.00
  23816018-23816016       1.00   0.00  0.00  0.00  0.97  0.03  0.00  0.00  1.00  0.00
  23816036-23816037       1.00   0.00  0.00  0.00  0.00  1.00  0.00  0.00  0.00  0.00
  23816037-23816011       3.15   0.00  0.00  0.00  0.00  1.00  0.00  0.00  0.99  0.00
  23916007-23916003     508.59   0.00  0.00  0.00  0.00  1.00  0.00  0.00  0.00  0.00
  23916008-23916007      82.59   0.00  0.00  0.00  0.00  0.00  0.00  1.00  0.00  0.00
  23916014-23916015       1.00   0.00  0.00  0.00  0.00  0.00  0.00  1.00  0.00  0.00
  23916015-23916007       1.00   0.00  0.00  0.00  0.16  0.84  0.00  0.00  0.18  0.00
  23916016-23916015       2.24   0.00  0.00  0.00  0.00  0.00  0.00  1.00  0.00  0.00
  23916017-23916016       1.00   0.00  0.00  0.00  0.00  0.00  0.00  1.00  0.00  0.00
  23916025-23916026       1.00   0.00  0.00  0.00  0.00  0.00  0.00  1.00  0.00  0.00
  23916026-23916015       1.00   0.00  0.00  0.00  0.56  0.44  0.00  0.00  1.00  0.00
  23916027-23916026       2.67   0.00  0.00  0.00  0.00  0.00  0.00  1.00  0.00  0.00
  
  
  *************************
  Conduit Surcharge Summary
  *************************
  
  ----------------------------------------------------------------------------
                                                           Hours        Hours 
                         --------- Hours Full --------   Above Full   Capacity
  Conduit                Both Ends  Upstream  Dnstream   Normal Flow   Limited
  ----------------------------------------------------------------------------
  23801017-23801018           0.01      0.01      2.04      0.01         0.01
  23801026-23801027           0.01      0.01      2.48      0.01         0.01
  23809006-23809049           0.01      0.01      0.26      0.01         0.01
  23809013-23809049           0.01      0.01      0.01      0.30         0.01
  23809049-23809050           0.01      0.01      0.01      0.24         0.01
  23809050-23809002           0.01      0.01      0.01      2.56         0.01
  23810025-23810024           0.01      0.01      0.01      0.02         0.01
  

  Analysis begun on:  Tue Feb 06 10:57:30 2018
  Analysis ended on:  Tue Feb 06 10:57:35 2018
  Total elapsed time: 00:00:05