
  EPA STORM WATER MANAGEMENT MODEL - VERSION 5.1 (Build 5.1.012)
  --------------------------------------------------------------

   Example 10 of Extran Manual - 
   Type 3 Pumps 
  
  
  *********************************************************
  NOTE: The summary statistics displayed in this report are
  based on results found at every computational time step,  
  not just on results from each reporting time step.
  *********************************************************
  
  ****************
  Analysis Options
  ****************
  Flow Units ............... CFS
  Process Models:
    Rainfall/Runoff ........ NO
    RDII ................... NO
    Snowmelt ............... NO
    Groundwater ............ NO
    Flow Routing ........... YES
    Ponding Allowed ........ NO
    Water Quality .......... NO
  Flow Routing Method ...... DYNWAVE
  Starting Date ............ 04/11/2005 00:00:00
  Ending Date .............. 04/11/2005 05:00:00
  Antecedent Dry Days ...... 0.0
  Report Time Step ......... 00:10:00
  Routing Time Step ........ 60.00 sec
  Variable Time Step ....... NO
  Maximum Trials ........... 8
  Number of Threads ........ 1
  Head Tolerance ........... 0.005000 ft
  
  
  *********************
  Control Actions Taken
  *********************
   04/11/2005: 00:16:00 Link 90002 setting changed to   1.00 by Control 90002A
   04/11/2005: 00:20:00 Link 90002 setting changed to   0.00 by Control 90002B
   04/11/2005: 00:26:00 Link 90002 setting changed to   1.00 by Control 90002A
   04/11/2005: 00:27:00 Link 90003 setting changed to   1.00 by Control 90003A
   04/11/2005: 00:42:00 Link 90004 setting changed to   1.00 by Control 90004A
   04/11/2005: 00:49:00 Link 90005 setting changed to   1.00 by Control 90005A
   04/11/2005: 00:57:00 Link 90006 setting changed to   1.00 by Control 90006A

  
  **************************        Volume        Volume
  Flow Routing Continuity        acre-feet      10^6 gal
  **************************     ---------     ---------
  Dry Weather Inflow .......         0.000         0.000
  Wet Weather Inflow .......         0.000         0.000
  Groundwater Inflow .......         0.000         0.000
  RDII Inflow ..............         0.000         0.000
  External Inflow ..........        37.051        12.074
  External Outflow .........        34.918        11.379
  Flooding Loss ............         0.000         0.000
  Evaporation Loss .........         0.000         0.000
  Exfiltration Loss ........         0.000         0.000
  Initial Stored Volume ....         0.092         0.030
  Final Stored Volume ......         2.177         0.709
  Continuity Error (%) .....         0.129
  
  
  ********************************
  Highest Flow Instability Indexes
  ********************************
  Link 90002 (5)
  Link 90003 (4)
  Link 90004 (3)
  Link 90005 (2)
  Link 90006 (1)
  
  
  *************************
  Routing Time Step Summary
  *************************
  Minimum Time Step           :    60.00 sec
  Average Time Step           :    60.00 sec
  Maximum Time Step           :    60.00 sec
  Percent in Steady State     :     0.00
  Average Iterations per Step :     2.33
  Percent Not Converging      :     0.00
  
  
  ******************
  Node Depth Summary
  ******************
  
  ---------------------------------------------------------------------------------
                                 Average  Maximum  Maximum  Time of Max    Reported
                                   Depth    Depth      HGL   Occurrence   Max Depth
  Node                 Type         Feet     Feet     Feet  days hr:min        Feet
  ---------------------------------------------------------------------------------
  201                  OUTFALL      2.62     3.03   122.93     0  05:00        3.03
  401                  STORAGE     10.74    12.10    62.10     0  05:00       12.10
  301                  STORAGE     26.66    29.60   129.60     0  05:00       29.60
  
  
  *******************
  Node Inflow Summary
  *******************
  
  -------------------------------------------------------------------------------------------------
                                  Maximum  Maximum                  Lateral       Total        Flow
                                  Lateral    Total  Time of Max      Inflow      Inflow     Balance
                                   Inflow   Inflow   Occurrence      Volume      Volume       Error
  Node                 Type           CFS      CFS  days hr:min    10^6 gal    10^6 gal     Percent
  -------------------------------------------------------------------------------------------------
  201                  OUTFALL       0.00   100.00     0  05:00           0        11.4       0.000
  401                  STORAGE     100.00   100.00     0  01:01        12.1        12.1      -0.008
  301                  STORAGE       0.00   110.17     0  00:28           0        11.9       0.863
  
  
  **********************
  Node Surcharge Summary
  **********************
  
  No nodes were surcharged.
  
  
  *********************
  Node Flooding Summary
  *********************
  
  No nodes were flooded.
  
  
  **********************
  Storage Volume Summary
  **********************
  
  --------------------------------------------------------------------------------------------------
                         Average     Avg  Evap Exfil       Maximum     Max    Time of Max    Maximum
                          Volume    Pcnt  Pcnt  Pcnt        Volume    Pcnt     Occurrence    Outflow
  Storage Unit          1000 ft3    Full  Loss  Loss      1000 ft3    Full    days hr:min        CFS
  --------------------------------------------------------------------------------------------------
  401                     21.486      21     0     0        24.199      24       0  05:00     110.17
  301                     53.319      53     0     0        59.199      59       0  05:00     100.00
  
  
  ***********************
  Outfall Loading Summary
  ***********************
  
  -----------------------------------------------------------
                         Flow       Avg       Max       Total
                         Freq      Flow      Flow      Volume
  Outfall Node           Pcnt       CFS       CFS    10^6 gal
  -----------------------------------------------------------
  201                   90.00     94.08    100.00      11.378
  -----------------------------------------------------------
  System                90.00     94.08    100.00      11.378
  
  
  ********************
  Link Flow Summary
  ********************
  
  -----------------------------------------------------------------------------
                                 Maximum  Time of Max   Maximum    Max/    Max/
                                  |Flow|   Occurrence   |Veloc|    Full    Full
  Link                 Type          CFS  days hr:min    ft/sec    Flow   Depth
  -----------------------------------------------------------------------------
  100                  CONDUIT    100.00     0  05:00      8.55    8.03    0.88
  90002                PUMP       100.00     0  00:17              1.00
  90003                PUMP        55.09     0  00:28              0.55
  90004                PUMP        26.15     0  00:43              0.26
  90005                PUMP        22.68     0  00:50              0.23
  90006                PUMP        20.40     0  00:58              0.20
  
  
  ***************************
  Flow Classification Summary
  ***************************
  
  -------------------------------------------------------------------------------------
                      Adjusted    ---------- Fraction of Time in Flow Class ---------- 
                       /Actual         Up    Down  Sub   Sup   Up    Down  Norm  Inlet 
  Conduit               Length    Dry  Dry   Dry   Crit  Crit  Crit  Crit  Ltd   Ctrl  
  -------------------------------------------------------------------------------------
  100                     1.00   0.10  0.00  0.00  0.90  0.00  0.00  0.00  0.00  0.00
  
  
  *************************
  Conduit Surcharge Summary
  *************************
  
  ----------------------------------------------------------------------------
                                                           Hours        Hours 
                         --------- Hours Full --------   Above Full   Capacity
  Conduit                Both Ends  Upstream  Dnstream   Normal Flow   Limited
  ----------------------------------------------------------------------------
  100                         0.01      4.30      0.01      4.45         0.01
  
  
  ***************
  Pumping Summary
  ***************
  
  ---------------------------------------------------------------------------------------------------------
                                                  Min       Avg       Max     Total     Power    % Time Off
                        Percent   Number of      Flow      Flow      Flow    Volume     Usage    Pump Curve
  Pump                 Utilized   Start-Ups       CFS       CFS       CFS  10^6 gal     Kw-hr    Low   High
  ---------------------------------------------------------------------------------------------------------
  90002                   92.67           2      0.00     21.48    100.00     2.680    558.56    0.0    0.4
  90003                   91.00           1      0.00     20.42     55.09     2.501    529.02    0.0    0.0
  90004                   86.00           1      0.00     20.08     26.15     2.325    492.79    0.0    0.0
  90005                   83.67           1      0.00     19.97     22.68     2.250    477.18    0.0    0.0
  90006                   81.00           1      0.00     19.94     20.40     2.174    461.26    0.0    0.0
  

  Analysis begun on:  Fri Mar 09 15:35:22 2018
  Analysis ended on:  Fri Mar 09 15:35:22 2018
  Total elapsed time: < 1 sec