
  EPA STORM WATER MANAGEMENT MODEL - VERSION 5.1 (Build 5.1.012)
  --------------------------------------------------------------

  Example User3 
  
  
  *********************************************************
  NOTE: The summary statistics displayed in this report are
  based on results found at every computational time step,  
  not just on results from each reporting time step.
  *********************************************************
  
  ****************
  Analysis Options
  ****************
  Flow Units ............... CMS
  Process Models:
    Rainfall/Runoff ........ YES
    RDII ................... NO
    Snowmelt ............... NO
    Groundwater ............ NO
    Flow Routing ........... YES
    Ponding Allowed ........ NO
    Water Quality .......... NO
  Infiltration Method ...... HORTON
  Flow Routing Method ...... DYNWAVE
  Starting Date ............ 01/01/1999 01:00:00
  Ending Date .............. 01/01/1999 07:00:00
  Antecedent Dry Days ...... 0.0
  Report Time Step ......... 00:01:00
  Wet Time Step ............ 00:01:00
  Dry Time Step ............ 00:10:00
  Routing Time Step ........ 0.50 sec
  Variable Time Step ....... NO
  Maximum Trials ........... 8
  Number of Threads ........ 32
  Head Tolerance ........... 0.001524 m
  
  
  **************************        Volume         Depth
  Runoff Quantity Continuity     hectare-m            mm
  **************************     ---------       -------
  Total Precipitation ......        53.067        42.200
  Evaporation Loss .........         0.570         0.453
  Infiltration Loss ........        22.593        17.966
  Surface Runoff ...........        29.003        23.063
  Final Storage ............         0.917         0.729
  Continuity Error (%) .....        -0.029
  
  
  **************************        Volume        Volume
  Flow Routing Continuity        hectare-m      10^6 ltr
  **************************     ---------     ---------
  Dry Weather Inflow .......         0.000         0.000
  Wet Weather Inflow .......        29.003       290.028
  Groundwater Inflow .......         0.000         0.000
  RDII Inflow ..............         0.000         0.000
  External Inflow ..........         0.000         0.000
  External Outflow .........        23.171       231.712
  Flooding Loss ............         5.632        56.321
  Evaporation Loss .........         0.000         0.000
  Exfiltration Loss ........         0.000         0.000
  Initial Stored Volume ....         2.303        23.026
  Final Stored Volume ......         2.511        25.110
  Continuity Error (%) .....        -0.028
  
  
  *************************
  Highest Continuity Errors
  *************************
  Node SSHBSAR-I (1.76%)
  Node SNOTMYR-I (1.14%)
  
  
  ********************************
  Highest Flow Instability Indexes
  ********************************
  All links are stable.
  
  
  *************************
  Routing Time Step Summary
  *************************
  Minimum Time Step           :     0.50 sec
  Average Time Step           :     0.50 sec
  Maximum Time Step           :     0.50 sec
  Percent in Steady State     :     0.00
  Average Iterations per Step :     2.05
  Percent Not Converging      :     0.46
  
  
  ***************************
  Subcatchment Runoff Summary
  ***************************
  
  --------------------------------------------------------------------------------------------------------
                            Total      Total      Total      Total      Total       Total     Peak  Runoff
                           Precip      Runon       Evap      Infil     Runoff      Runoff   Runoff   Coeff
  Subcatchment                 mm         mm         mm         mm         mm    10^6 ltr      CMS
  --------------------------------------------------------------------------------------------------------
  CMCPWIN                   42.20       0.00       0.56       9.07      31.54        5.41     2.95   0.747
  CMCPBAN                   42.20       0.00       0.59       6.35      34.13        2.95     1.61   0.809
  CMCPELG                   42.20       0.00       0.43      20.23      20.91        1.45     0.79   0.496
  CMCPPAC                   42.20       0.00       0.59       6.35      34.13        3.88     2.12   0.809
  CPAC72                    42.20       0.00       0.43      19.42      21.68        2.56     1.40   0.514
  CPAC75                    42.20       0.00       0.48      15.40      25.51        2.98     1.63   0.605
  CALEXAN                   42.20       0.00       0.58       7.51      33.02        0.28     0.15   0.783
  CLOG80                    42.20       0.00       0.63       3.67      36.66        2.17     1.18   0.869
  CHEN90                    42.20       0.00       0.40      22.66      18.60        2.61     1.42   0.441
  CHIGMAU                   42.20       0.00       0.55       9.85      30.80        2.24     1.22   0.730
  CHEN90-R                  42.20       0.00       0.26      35.72       6.10        0.35     0.19   0.144
  CHIGMAU-R                 42.20       0.00       0.26      35.72       6.10        0.29     0.16   0.145
  CMCPLOG                   42.20       0.00       0.39      23.47      17.82        1.63     0.89   0.422
  CLOGYEO                   42.20       0.00       0.30      31.62      10.03        0.46     0.25   0.238
  CLOGYEO-R                 42.20       0.00       0.26      35.72       6.10        0.03     0.02   0.145
  CLOGWNK                   42.20       0.00       0.37      25.50      15.88        1.89     1.03   0.376
  CLOGCEC-R                 42.20       0.00       0.26      35.72       6.10        1.67     0.92   0.144
  CLOGQUE-R                 42.20       0.00       0.29      32.44       9.24        0.39     0.21   0.219
  CLOGVIN-R                 42.20       0.00       0.26      35.72       6.10        0.72     0.39   0.145
  CLOGWNK-R                 42.20       0.00       0.26      35.72       6.10        0.14     0.08   0.145
  CLOGELE                   42.20       0.00       0.39      23.47      17.82        1.29     0.71   0.422
  CLOGVIN                   42.20       0.00       0.51      13.41      27.41        2.93     1.60   0.650
  CLOGQUE                   42.20       0.00       0.48      15.40      25.51        0.42     0.23   0.605
  CLOGCEC                   42.20       0.00       0.46      17.41      23.60        2.21     1.21   0.559
  CCECROY                   42.20       0.00       0.46      17.41      23.60        0.40     0.22   0.559
  SMCPWIN1                  42.20       0.00       0.58       7.51      33.02        2.83     1.55   0.783
  SMCPWIN2                  42.20       0.00       0.54      10.64      30.05        2.58     1.41   0.712
  SMCPBAN                   42.20       0.00       0.59       6.35      34.13        2.95     1.61   0.809
  SMCPELG                   42.20       0.00       0.43      20.23      20.91        1.45     0.79   0.496
  SMCPPAC                   42.20       0.00       0.59       6.35      34.13        3.88     2.12   0.809
  SPAC72                    42.20       0.00       0.43      19.42      21.68        2.56     1.40   0.514
  SPAC75                    42.20       0.00       0.48      15.40      25.51        2.98     1.63   0.605
  SXANALE                   42.20       0.00       0.58       7.51      33.02        0.28     0.15   0.783
  SLOG80                    42.20       0.00       0.63       3.67      36.66        2.17     1.18   0.869
  SHEN90                    42.20       0.00       0.40      22.66      18.60        2.61     1.42   0.441
  SHIGMAU                   42.20       0.00       0.55       9.85      30.80        2.24     1.22   0.730
  SHEN90-R                  42.20       0.00       0.26      35.72       6.10        0.35     0.19   0.144
  SHIGMAU-R                 42.20       0.00       0.26      35.72       6.10        0.29     0.16   0.145
  SMCPLOG                   42.20       0.00       0.39      23.47      17.82        1.63     0.89   0.422
  SLOGYEO                   42.20       0.00       0.30      31.62      10.03        0.46     0.25   0.238
  SLOGYEO-R                 42.20       0.00       0.26      35.72       6.10        0.03     0.02   0.145
  SLOGWNK                   42.20       0.00       0.37      25.50      15.88        1.89     1.03   0.376
  SLOGCEC-R                 42.20       0.00       0.26      35.72       6.10        1.67     0.92   0.144
  SLOGQUE-R                 42.20       0.00       0.29      32.44       9.24        0.39     0.21   0.219
  SLOGVIN-R                 42.20       0.00       0.26      35.72       6.10        0.72     0.39   0.145
  SLOGWNK-R                 42.20       0.00       0.26      35.72       6.10        0.14     0.08   0.145
  SLOGELE                   42.20       0.00       0.39      23.47      17.82        1.29     0.71   0.422
  SLOGVIN                   42.20       0.00       0.51      13.41      27.41        2.93     1.60   0.650
  SLOGQUE                   42.20       0.00       0.48      15.40      25.51        0.42     0.23   0.605
  SLOGCEC                   42.20       0.00       0.46      17.41      23.60        2.21     1.21   0.559
  SCECROY                   42.20       0.00       0.46      17.41      23.60        0.40     0.22   0.559
  CLIPSAR                   42.20       0.00       0.47      16.20      24.75        3.35     1.83   0.586
  CSARBUR                   42.20       0.00       0.46      17.41      23.60        1.44     0.78   0.559
  CSARARL                   42.20       0.00       0.47      16.20      24.75        3.43     1.87   0.586
  CLIPWEL                   42.20       0.00       0.48      15.40      25.51        3.83     2.09   0.605
  CWELSHB                   42.20       0.00       0.46      17.41      23.60        1.12     0.61   0.559
  CWELDOM                   42.20       0.00       0.45      18.21      22.84        3.33     1.82   0.541
  CLIPNOT                   42.20       0.00       0.54      10.24      30.42        3.03     1.65   0.721
  CNOTDOM                   42.20       0.00       0.46      17.41      23.60        6.52     3.56   0.559
  CNOTSHB                   42.20       0.00       0.48      15.80      25.13        2.93     1.60   0.596
  SLIPSAR                   42.20       0.00       0.47      16.20      24.75        3.35     1.83   0.586
  SSARBUR                   42.20       0.00       0.46      17.41      23.60        1.44     0.78   0.559
  SSARARL1                  42.20       0.00       0.48      15.59      25.33        1.17     0.64   0.600
  SSARARL2                  42.20       0.00       0.48      15.59      25.33        1.17     0.64   0.600
  SSARARL3                  42.20       0.00       0.46      17.41      23.60        1.09     0.59   0.559
  SLIPWEL1                  42.20       0.00       0.48      15.40      25.51        2.68     1.46   0.605
  SLIPWEL2                  42.20       0.00       0.48      15.40      25.51        1.15     0.63   0.605
  SWELSHB                   42.20       0.00       0.46      17.41      23.60        1.12     0.61   0.559
  SWELDOM                   42.20       0.00       0.45      18.21      22.84        3.33     1.82   0.541
  SLIPNOT1                  42.20       0.00       0.46      17.01      23.99        1.19     0.65   0.568
  SLIPNOT2                  42.20       0.00       0.63       3.67      36.66        1.82     0.99   0.869
  SNOTDOM1                  42.20       0.00       0.46      17.41      23.60        2.17     1.19   0.559
  SNOTDOM2                  42.20       0.00       0.46      17.41      23.60        2.17     1.19   0.559
  SNOTDOM3                  42.20       0.00       0.46      17.41      23.60        2.17     1.19   0.559
  SNOTSHB                   42.20       0.00       0.48      15.80      25.13        2.93     1.60   0.596
  CAUBPAL                   42.20       0.00       0.46      17.41      23.60        0.91     0.49   0.559
  CAUBWOL                   42.20       0.00       0.46      17.41      23.60        2.10     1.15   0.559
  CAUBWSM                   42.20       0.00       0.46      17.41      23.60        0.77     0.42   0.559
  CELCGRF                   42.20       0.00       0.46      17.41      23.60        3.93     2.14   0.559
  CELCING                   42.20       0.00       0.46      17.41      23.60        1.49     0.81   0.559
  CLIPELC                   42.20       0.00       0.46      17.41      23.60        0.62     0.34   0.559
  CLIPSMT                   42.20       0.00       0.46      17.01      23.99        2.23     1.22   0.568
  CPORBAN                   42.20       0.00       0.46      17.41      23.60        2.87     1.56   0.559
  CPORBUR                   42.20       0.00       0.52      11.82      28.92        6.32     3.45   0.685
  CPORDOM                   42.20       0.00       0.51      13.41      27.41        3.05     1.66   0.650
  CPORGRE                   42.20       0.00       0.46      17.41      23.60        4.00     2.18   0.559
  CPORLIP                   42.20       0.00       0.47      16.20      24.75        1.46     0.80   0.586
  CPORSHB                   42.20       0.00       0.48      15.80      25.13        2.57     1.40   0.596
  CPORSPR                   42.20       0.00       0.48      15.40      25.51        2.55     1.39   0.605
  CPORWLL                   42.20       0.00       0.58       7.51      33.02        5.42     2.96   0.783
  CSMTING                   42.20       0.00       0.46      17.41      23.60        1.80     0.98   0.559
  CSTMSHB                   42.20       0.00       0.46      17.41      23.60        3.09     1.69   0.559
  SAUBPAL                   42.20       0.00       0.46      17.41      23.60        0.91     0.49   0.559
  SAUBWOL                   42.20       0.00       0.46      17.41      23.60        2.10     1.15   0.559
  SELCGRF1                  42.20       0.00       0.46      17.41      23.60        3.14     1.71   0.559
  SELCGRF2                  42.20       0.00       0.46      17.41      23.60        0.79     0.43   0.559
  SELCING                   42.20       0.00       0.46      17.41      23.60        1.49     0.81   0.559
  SLIPELC                   42.20       0.00       0.46      17.41      23.60        0.62     0.34   0.559
  SLIPSMT1                  42.20       0.00       0.46      17.41      23.60        1.10     0.60   0.559
  SLIPSMT2                  42.20       0.00       0.47      16.61      24.37        1.13     0.62   0.577
  SPORBAN1                  42.20       0.00       0.46      17.41      23.60        2.01     1.09   0.559
  SPORBAN2                  42.20       0.00       0.46      17.41      23.60        0.86     0.47   0.559
  SPORBUR1                  42.20       0.00       0.46      17.41      23.60        1.29     0.70   0.559
  SPORBUR2                  42.20       0.00       0.59       6.34      34.13        1.86     1.02   0.809
  SPORBUR3                  42.20       0.00       0.52      11.82      28.92        1.58     0.86   0.685
  SPORBUR4                  42.20       0.00       0.52      11.82      28.92        1.58     0.86   0.685
  SPORDOM1                  42.20       0.00       0.46      17.41      23.60        0.66     0.36   0.559
  SPORDOM2                  42.20       0.00       0.46      17.41      23.60        0.66     0.36   0.559
  SPORDOM3                  42.20       0.00       0.53      11.43      29.30        0.81     0.44   0.694
  SPORDOM4                  42.20       0.00       0.58       7.51      33.02        0.92     0.50   0.783
  SPORGRE1                  42.20       0.00       0.46      17.41      23.60        1.00     0.55   0.559
  SPORGRE2                  42.20       0.00       0.46      17.41      23.60        1.00     0.55   0.559
  SPORGRE3                  42.20       0.00       0.46      17.41      23.60        1.00     0.55   0.559
  SPORGRE4                  42.20       0.00       0.46      17.41      23.60        1.00     0.55   0.559
  SPORLIP1                  42.20       0.00       0.47      16.20      24.75        0.73     0.40   0.586
  SPORLIP2                  42.20       0.00       0.47      16.20      24.75        0.73     0.40   0.586
  SPORSHB1                  42.20       0.00       0.46      17.41      23.60        0.80     0.44   0.559
  SPORSHB2                  42.20       0.00       0.51      12.61      28.17        0.96     0.52   0.667
  SPORSHB3                  42.20       0.00       0.46      17.41      23.60        0.80     0.44   0.559
  SPORSPR1                  42.20       0.00       0.46      17.41      23.60        0.79     0.43   0.559
  SPORSPR2                  42.20       0.00       0.53      11.42      29.31        0.98     0.53   0.694
  SPORSPR3                  42.20       0.00       0.46      17.41      23.60        0.79     0.43   0.559
  SPORWLL1                  42.20       0.00       0.43      19.42      21.68        1.19     0.65   0.514
  SPORWLL2                  42.20       0.00       0.66       1.81      38.42        2.10     1.13   0.910
  SPORWLL3                  42.20       0.00       0.66       1.81      38.42        2.10     1.13   0.910
  SSMTING1                  42.20       0.00       0.46      17.41      23.60        1.26     0.69   0.559
  SSMTING2                  42.20       0.00       0.46      17.41      23.60        0.54     0.29   0.559
  SSTMSHB1                  42.20       0.00       0.46      17.41      23.60        1.55     0.84   0.559
  SSTMSHB2                  42.20       0.00       0.53      11.03      29.67        0.97     0.53   0.703
  SSTMSHB3                  42.20       0.00       0.38      23.87      17.43        0.57     0.31   0.413
  CPORCAN                   42.20       0.00       0.52      11.82      28.92        2.07     1.13   0.685
  CPORHOM                   42.20       0.00       0.49      14.60      26.27        2.57     1.41   0.623
  CSIMSTM                   42.20       0.00       0.46      17.41      23.60        2.99     1.63   0.559
  CSIMELC                   42.20       0.00       0.46      17.41      23.60        3.51     1.91   0.559
  CSIMSAR                   42.20       0.00       0.48      15.80      25.13        1.66     0.91   0.596
  CSIMWEL                   42.20       0.00       0.51      13.01      27.79        1.95     1.06   0.659
  SPORCAN1                  42.20       0.00       0.59       6.35      34.13        1.22     0.67   0.809
  SPORCAN2                  42.20       0.00       0.46      17.41      23.60        0.85     0.46   0.559
  SPORHOM1                  42.20       0.00       0.49      14.60      26.27        1.29     0.70   0.623
  SPORHOM2                  42.20       0.00       0.49      14.60      26.27        1.29     0.70   0.623
  SSIMSTM1                  42.20       0.00       0.46      17.41      23.60        1.49     0.82   0.559
  SSIMSTM2                  42.20       0.00       0.46      17.41      23.60        1.49     0.82   0.559
  SSIMELC                   42.20       0.00       0.46      17.41      23.60        3.51     1.91   0.559
  SSIMSAR                   42.20       0.00       0.48      15.80      25.13        1.66     0.91   0.596
  SSIMWEL1                  42.20       0.00       0.50      12.69      28.16        0.99     0.56   0.667
  SSIMWEL2                  42.20       0.00       0.50      12.69      28.16        0.99     0.56   0.667
  CCORMID                   42.20       0.00       0.39      23.47      17.82        2.99     1.63   0.422
  CMRYCOR                   42.20       0.00       0.48      15.80      25.13        1.04     0.57   0.596
  CMRYWSM                   42.20       0.00       0.48      15.40      25.51        0.49     0.27   0.605
  CWALPUR                   42.20       0.00       0.46      17.41      23.60        0.82     0.45   0.559
  CWSMWAL                   42.20       0.00       0.46      17.41      23.60        2.20     1.20   0.559
  CWSMARL                   42.20       0.00       0.46      17.41      23.60        2.78     1.51   0.559
  CWSMCAN                   42.20       0.00       0.46      17.41      23.60        1.81     0.99   0.559
  CWSMETH                   42.20       0.00       0.46      17.41      23.60        2.03     1.11   0.559
  CCANPRE                   42.20       0.00       0.36      26.31      15.10        1.01     0.55   0.358
  SCORMID                   42.20       0.00       0.39      23.47      17.82        2.99     1.63   0.422
  SMRYCOR                   42.20       0.00       0.48      15.80      25.13        1.04     0.57   0.596
  SMRYWSM                   42.20       0.00       0.48      15.40      25.51        0.49     0.27   0.605
  SWALPUR                   42.20       0.00       0.46      17.41      23.60        0.82     0.45   0.559
  SWSMWAL1                  42.20       0.00       0.46      17.41      23.60        1.10     0.60   0.559
  SWSMWAL2                  42.20       0.00       0.46      17.41      23.60        1.10     0.60   0.559
  SWSMARL1                  42.20       0.00       0.46      17.41      23.60        1.39     0.76   0.559
  SWSMARL2                  42.20       0.00       0.46      17.41      23.60        1.39     0.76   0.559
  SWSMCAN1                  42.20       0.00       0.46      17.41      23.60        0.91     0.49   0.559
  SWSMCAN2                  42.20       0.00       0.46      17.41      23.60        0.91     0.49   0.559
  SWSMETH1                  42.20       0.00       0.46      17.41      23.60        1.02     0.55   0.559
  SWSMETH2                  42.20       0.00       0.46      17.41      23.60        1.02     0.55   0.559
  SCANPRE                   42.20       0.00       0.36      26.31      15.10        1.01     0.55   0.358
  
  
  ******************
  Node Depth Summary
  ******************
  
  ---------------------------------------------------------------------------------
                                 Average  Maximum  Maximum  Time of Max    Reported
                                   Depth    Depth      HGL   Occurrence   Max Depth
  Node                 Type       Meters   Meters   Meters  days hr:min      Meters
  ---------------------------------------------------------------------------------
  CCOROUT1             JUNCTION     0.40     1.22   225.17     0  01:47        1.22
  SCANOUT1             JUNCTION     1.56     8.46   230.72     0  01:46        2.54
  XCAUBPAL             JUNCTION     1.59     4.17   227.65     0  01:51        4.16
  XSCANPAL             JUNCTION     1.63     3.34   225.62     0  01:47        3.34
  XSRUBPAL             JUNCTION     2.30     2.83   224.33     0  02:00        2.83
  SAUBOUT              OUTFALL      2.70     2.70   223.70     0  00:00        2.70
  SCANOUT              OUTFALL      1.60     1.60   223.70     0  00:00        1.60
  SRUBOUT              OUTFALL      2.55     2.55   223.70     0  00:00        2.55
  CAUBOUT              OUTFALL      0.72     1.23   224.52     0  01:46        1.23
  CCOROUT              OUTFALL      0.36     1.22   225.07     0  01:47        1.22
  CMRYOUT              OUTFALL      0.38     0.60   223.99     0  01:48        0.60
  CALEXAN-I            STORAGE      1.40     3.94   229.81     0  01:38        3.94
  CAUBPAL-I            STORAGE      1.63     4.19   227.62     0  01:52        4.19
  CAUBPOR              STORAGE      1.86     5.21   229.07     0  01:45        5.21
  CAUBSPS              STORAGE      1.03     1.81   225.17     0  01:46        1.81
  CAUBWOL-I            STORAGE      1.68     4.45   228.04     0  01:51        4.45
  CAUBWSM-I            STORAGE      1.70     4.64   228.37     0  01:51        4.64
  CCANPRE-I            STORAGE      0.82     4.27   229.80     0  01:43        4.27
  CCECROY-I            STORAGE      0.68     1.86   229.56     0  01:34        1.86
  CCORDIV              STORAGE      0.39     2.03   225.98     0  01:47        2.03
  CCORMID-I            STORAGE      0.51     2.31   226.42     0  01:46        2.31
  CELCGRF-I            STORAGE      1.08     4.28   229.89     0  01:34        4.28
  CELCING-I            STORAGE      1.23     4.75   229.99     0  01:42        4.74
  CHEN90-I             STORAGE      1.30     4.18   230.21     0  01:38        4.18
  CHIGMAU-I            STORAGE      1.24     3.78   229.90     0  01:38        3.79
  CLIP25               STORAGE      1.84     5.38   229.44     0  01:45        5.38
  CLIP35               STORAGE      1.86     5.45   229.77     0  01:45        5.45
  CLIPELC-I            STORAGE      1.87     5.42   229.82     0  01:45        5.41
  CLIPNOT-I            STORAGE      1.82     4.56   229.63     0  01:38        4.56
  CLIPSAR-I            STORAGE      1.86     5.33   229.92     0  01:41        5.32
  CLIPSMT-I            STORAGE      1.87     5.50   229.72     0  01:45        5.50
  CLIPWEL-I            STORAGE      1.86     5.18   229.96     0  01:40        5.17
  CLIPYAR              STORAGE      1.83     4.92   229.83     0  01:40        4.92
  CLOG80-I             STORAGE      1.35     4.32   230.27     0  01:38        4.09
  CLOGCEC-I            STORAGE      1.01     2.90   230.14     0  01:34        2.90
  CLOGELE-I            STORAGE      1.23     3.04   229.66     0  01:34        3.04
  CLOGQUE-I            STORAGE      1.16     3.13   230.08     0  01:34        3.13
  CLOGVIN-I            STORAGE      1.23     3.58   230.40     0  01:34        3.58
  CLOGWNK-I            STORAGE      1.28     3.16   229.56     0  01:35        3.16
  CLOGYEO-I            STORAGE      1.31     3.51   229.70     0  01:37        3.51
  CMCPBAN-I            STORAGE      1.63     4.33   229.74     0  01:37        4.33
  CMCPELG-I            STORAGE      1.58     4.47   230.02     0  01:41        4.44
  CMCPLOG-I            STORAGE      1.35     3.91   229.89     0  01:38        3.91
  CMCPPAC-I            STORAGE      1.56     4.26   229.92     0  01:37        4.26
  CMCPROS              STORAGE      1.56     4.51   230.13     0  01:38        4.50
  CMCPWIN-I            STORAGE      1.74     4.72   229.93     0  01:38        4.59
  CMRYCOR-I            STORAGE      0.48     2.39   226.70     0  01:46        2.38
  CMRYCSO              STORAGE      0.93     3.00   226.40     0  01:43        3.00
  CMRYWSM-I            STORAGE      0.77     3.06   227.73     0  01:46        3.05
  CNOTDOM-I            STORAGE      1.10     3.63   230.07     0  01:31        3.63
  CNOTSHB-I            STORAGE      1.29     3.96   229.94     0  01:33        3.96
  CPAC72-I             STORAGE      0.85     3.09   229.94     0  01:37        3.09
  CPAC75-I             STORAGE      0.48     1.92   229.71     0  01:36        1.91
  CPORBAN-I            STORAGE      1.30     5.21   229.93     0  01:44        5.21
  CPORBUR-I            STORAGE      1.19     4.94   229.90     0  01:33        4.94
  CPORCAN-I            STORAGE      0.80     4.32   230.14     0  01:44        4.31
  CPORDOM-I            STORAGE      1.27     5.33   230.44     0  01:35        5.32
  CPORGRE-I            STORAGE      1.12     5.00   230.54     0  01:34        5.00
  CPORHOM-I            STORAGE      0.62     3.95   230.21     0  01:39        3.95
  CPORLIP-I            STORAGE      1.85     5.28   229.20     0  01:45        5.27
  CPORSHB-I            STORAGE      1.38     5.56   230.23     0  01:45        5.55
  CPORSPR-I            STORAGE      0.86     4.17   230.50     0  01:33        4.16
  CPORWLL-I            STORAGE      0.77     3.86   230.65     0  01:32        3.86
  CPREWAL              STORAGE      0.83     4.31   229.60     0  01:45        4.31
  CSARARL-I            STORAGE      0.89     3.38   229.44     0  01:34        3.38
  CSARBUR-I            STORAGE      1.14     4.20   229.77     0  01:40        4.20
  CSIMELC-I            STORAGE      0.73     3.16   230.36     0  01:35        3.16
  CSIMPOR              STORAGE      0.76     4.17   230.12     0  01:45        4.17
  CSIMSAR-I            STORAGE      0.56     1.74   229.43     0  01:33        1.74
  CSIMSTM-I            STORAGE      0.83     3.31   229.88     0  01:35        3.31
  CSIMWEL-I            STORAGE      0.26     0.86   229.53     0  01:32        0.86
  CSMTING-I            STORAGE      1.09     4.89   230.26     0  01:40        4.89
  CSTMSHB-I            STORAGE      1.02     4.76   230.34     0  01:35        4.76
  CWALPUR-I            STORAGE      0.88     4.35   229.46     0  01:45        4.34
  CWELDOM-I            STORAGE      0.74     3.39   230.21     0  01:35        3.39
  CWELSHB-I            STORAGE      0.88     3.46   229.80     0  01:38        3.46
  CWSMARL-I            STORAGE      0.53     3.44   229.98     0  01:35        3.44
  CWSMCAN-I            STORAGE      0.65     4.14   230.11     0  01:44        4.14
  CWSMETH-I            STORAGE      0.58     3.70   229.98     0  01:36        3.70
  CWSMWAL-I            STORAGE      0.70     4.49   230.09     0  01:45        4.49
  SALEMAU-I            STORAGE      0.66     3.85   228.30     0  01:52        3.85
  SALVNOT-I            STORAGE      0.79     3.57   227.19     0  01:54        3.57
  SALVSAR-I            STORAGE      1.20     3.56   226.52     0  01:56        3.56
  SALVWEL-I            STORAGE      1.04     3.65   226.85     0  01:55        3.65
  SBUR28               STORAGE      1.74     3.34   225.59     0  01:58        3.34
  SBUREIN-I            STORAGE      1.81     3.31   225.47     0  01:58        3.31
  SBURELC-I            STORAGE      1.35     3.40   226.14     0  01:57        3.40
  SBURPOR-I            STORAGE      1.91     3.27   225.30     0  01:59        3.27
  SBURSMT-I            STORAGE      1.48     3.32   225.88     0  01:58        3.32
  SCANPAL              STORAGE      1.63     3.28   225.54     0  01:47        3.28
  SCANPRE-I            STORAGE      1.11     3.82   226.77     0  01:47        3.82
  SCANWOL-I            STORAGE      1.54     3.54   225.95     0  01:45        3.54
  SCANWSM-I            STORAGE      1.43     3.88   226.46     0  01:46        3.88
  SDUM1-I              STORAGE      0.52     3.38   228.82     0  01:49        3.38
  SDUM2-I              STORAGE      0.47     3.41   229.27     0  01:47        3.41
  SDUM3-I              STORAGE      0.24     2.34   229.33     0  01:47        2.33
  SDUM4                STORAGE      0.57     3.43   228.13     0  01:50        3.43
  SDUM5                STORAGE      0.59     3.43   227.82     0  01:50        3.43
  SELCDOM-I            STORAGE      0.13     0.82   226.58     0  01:45        0.82
  SLARWIL-I            STORAGE      0.78     3.86   227.83     0  01:53        3.86
  SLENWSM-I            STORAGE      2.11     3.08   224.85     0  02:00        3.08
  SMAULOG-I            STORAGE      0.60     3.76   228.31     0  01:53        3.76
  SMCP85-I             STORAGE      0.56     3.40   228.42     0  01:49        3.40
  SMCPMCD-I            STORAGE      0.75     3.60   227.42     0  01:54        3.59
  SMCPNOT              STORAGE      0.77     3.61   227.35     0  01:55        3.61
  SMYRWIN-I            STORAGE      0.45     3.04   227.60     0  01:53        3.04
  SNOTMYR-I            STORAGE      0.54     3.20   227.60     0  01:47        3.20
  SNOTWLL-I            STORAGE      0.26     4.02   230.17     0  01:45        3.97
  SPORDOM-I            STORAGE      0.58     2.38   225.72     0  01:46        2.37
  SPORGRE-I            STORAGE      0.26     2.01   225.82     0  01:46        2.00
  SPORSHB-I            STORAGE      2.25     3.93   225.60     0  01:46        3.92
  SPORSPR-I            STORAGE      0.20     1.75   225.87     0  01:46        1.75
  SPORWLL-I            STORAGE      0.15     1.37   225.89     0  01:45        1.37
  SRUB02               STORAGE      2.51     2.76   224.00     0  01:57        2.76
  SRUBPAL-I            STORAGE      2.33     2.81   224.27     0  02:00        2.81
  SRUBWOL-I            STORAGE      2.25     2.99   224.58     0  02:00        2.99
  SSHB33               STORAGE      1.41     3.72   226.34     0  01:48        3.72
  SSHB54-I             STORAGE      0.67     3.44   227.29     0  01:52        3.44
  SSHBELC-I            STORAGE      1.31     3.74   226.50     0  01:48        3.74
  SSHBNOT-I            STORAGE      0.62     3.41   227.48     0  01:51        3.41
  SSHBPAL-I            STORAGE      2.60     3.60   224.83     0  01:46        3.60
  SSHBSAR-I            STORAGE      1.07     3.69   226.76     0  01:50        3.69
  SSHBSTM-I            STORAGE      1.63     3.85   226.23     0  01:47        3.85
  SSHBWEL-I            STORAGE      0.78     3.57   227.04     0  01:50        3.57
  SSHBWLV-I            STORAGE      1.98     3.93   225.91     0  01:47        3.93
  SSHBWSM-I            STORAGE      2.44     3.79   225.23     0  01:46        3.78
  SSIMELC-I            STORAGE      0.55     3.73   228.43     0  01:50        3.73
  SSIMPOR-I            STORAGE      0.67     3.83   227.34     0  01:48        3.82
  SSIMSAR-I            STORAGE      0.44     3.10   228.83     0  01:52        3.10
  SSIMSTM-I            STORAGE      0.60     3.88   228.03     0  01:49        3.88
  SSIMWEL-I            STORAGE      0.35     2.71   228.95     0  01:50        2.71
  SSTMARL-I            STORAGE      0.43     3.50   228.05     0  01:47        3.50
  SSTMDOM-I            STORAGE      0.26     2.16   226.37     0  01:47        2.16
  SWELDOM-I            STORAGE      0.24     1.96   227.10     0  01:51        1.96
  SWELMRY-I            STORAGE      0.23     2.22   229.02     0  01:52        2.21
  SWELVIC-I            STORAGE      0.29     2.44   228.98     0  01:53        2.44
  SWOLHOM-I            STORAGE      0.25     2.31   226.21     0  01:45        2.25
  SWSMARL-I            STORAGE      0.18     2.00   226.64     0  01:46        2.00
  SWSMHOM-I            STORAGE      0.25     2.41   226.61     0  01:46        2.40
  SXANALE-I            STORAGE      0.72     3.87   228.21     0  01:52        3.87
  SXANELG-I            STORAGE      0.75     3.90   227.98     0  01:53        3.90
  
  
  *******************
  Node Inflow Summary
  *******************
  
  -------------------------------------------------------------------------------------------------
                                  Maximum  Maximum                  Lateral       Total        Flow
                                  Lateral    Total  Time of Max      Inflow      Inflow     Balance
                                   Inflow   Inflow   Occurrence      Volume      Volume       Error
  Node                 Type           CMS      CMS  days hr:min    10^6 ltr    10^6 ltr     Percent
  -------------------------------------------------------------------------------------------------
  CCOROUT1             JUNCTION     0.000    3.406     0  01:47           0        15.4       0.000
  SCANOUT1             JUNCTION     0.000    8.224     0  01:47           0        30.9       0.008
  XCAUBPAL             JUNCTION     0.000    9.870     0  01:43           0        65.6       0.347
  XSCANPAL             JUNCTION     0.000    8.949     0  01:45           0        30.9      -0.006
  XSRUBPAL             JUNCTION     0.000   10.272     0  01:58           0        50.7      -0.001
  SAUBOUT              OUTFALL      0.000   15.290     0  01:47           0        61.9       0.000
  SCANOUT              OUTFALL      0.000    8.224     0  01:47           0        30.9       0.000
  SRUBOUT              OUTFALL      0.000   10.422     0  02:01           0        51.6       0.000
  CAUBOUT              OUTFALL      0.000    8.000     0  01:46           0          66       0.000
  CCOROUT              OUTFALL      0.000    3.404     0  01:47           0        15.4       0.000
  CMRYOUT              OUTFALL      0.000    0.932     0  01:48           0        5.91       0.000
  CALEXAN-I            STORAGE      0.153    3.488     0  01:40        0.28        7.39       0.060
  CAUBPAL-I            STORAGE      0.495    9.334     0  01:43       0.906        66.2       0.247
  CAUBPOR              STORAGE      0.000    9.692     0  01:41           0        63.2       0.254
  CAUBSPS              STORAGE      0.000    8.000     0  01:42           0        66.1       0.076
  CAUBWOL-I            STORAGE      1.146   10.331     0  01:44         2.1        65.7       0.238
  CAUBWSM-I            STORAGE      0.420    9.521     0  01:44       0.769        63.8       0.258
  CCANPRE-I            STORAGE      0.550    2.194     0  01:39        1.01        9.65      -0.000
  CCECROY-I            STORAGE      0.217    0.812     0  01:34       0.397        2.42      -0.021
  CCORDIV              STORAGE      0.000    3.497     0  01:45           0        15.4      -0.002
  CCORMID-I            STORAGE      1.632    3.831     0  01:45        2.99        15.4       0.018
  CELCGRF-I            STORAGE      2.142    2.281     0  01:45        3.93        3.95      -0.037
  CELCING-I            STORAGE      0.812    1.943     0  01:34        1.49        3.97      -0.043
  CHEN90-I             STORAGE      1.618    1.797     0  01:37        2.97        4.55      -0.014
  CHIGMAU-I            STORAGE      1.380    2.246     0  01:39        2.53         2.9       0.016
  CLIP25               STORAGE      0.000    5.731     0  01:41           0        43.9       0.302
  CLIP35               STORAGE      0.000    4.531     0  01:40           0        37.8       0.196
  CLIPELC-I            STORAGE      0.339    5.618     0  01:36        0.62        37.9       0.288
  CLIPNOT-I            STORAGE      1.652    6.324     0  01:45        3.03        29.6      -0.002
  CLIPSAR-I            STORAGE      1.826    5.942     0  01:36        3.35        33.6       0.274
  CLIPSMT-I            STORAGE      1.217    6.387     0  01:40        2.23          44       0.201
  CLIPWEL-I            STORAGE      2.089    4.773     0  01:37        3.83        28.8       0.111
  CLIPYAR              STORAGE      0.000    3.122     0  01:35           0        22.9       0.223
  CLOG80-I             STORAGE      1.177    2.467     0  01:39        2.17        6.31      -0.012
  CLOGCEC-I            STORAGE      2.123    2.123     0  01:45        3.88        4.24      -0.017
  CLOGELE-I            STORAGE      0.705    1.343     0  01:45        1.29        5.12       0.022
  CLOGQUE-I            STORAGE      0.441    1.051     0  01:45       0.808        2.78       0.046
  CLOGVIN-I            STORAGE      1.993    1.993     0  01:45        3.65        4.95       0.017
  CLOGWNK-I            STORAGE      1.110    1.606     0  01:45        2.03        6.28       0.017
  CLOGYEO-I            STORAGE      0.266    0.961     0  01:34       0.486        4.56       0.043
  CMCPBAN-I            STORAGE      1.610    3.906     0  01:43        2.95        18.5       0.106
  CMCPELG-I            STORAGE      0.789    2.131     0  01:44        1.45        15.5       0.087
  CMCPLOG-I            STORAGE      0.889    1.187     0  01:35        1.63        5.31       0.011
  CMCPPAC-I            STORAGE      2.118    3.800     0  01:36        3.88        15.2      -0.063
  CMCPROS              STORAGE      0.000    2.162     0  01:33           0          14       0.077
  CMCPWIN-I            STORAGE      2.954    3.054     0  01:38        5.41        21.6       0.109
  CMRYCOR-I            STORAGE      0.566    3.775     0  01:45        1.04        18.7       0.010
  CMRYCSO              STORAGE      0.000    1.353     0  01:46           0        6.34       0.014
  CMRYWSM-I            STORAGE      0.269    3.658     0  01:44       0.492        17.7      -0.002
  CNOTDOM-I            STORAGE      3.557    3.557     0  01:45        6.52        6.52      -0.021
  CNOTSHB-I            STORAGE      1.599    1.895     0  01:45        2.93        5.73       0.413
  CPAC72-I             STORAGE      1.397    1.923     0  01:35        2.56        3.83       0.605
  CPAC75-I             STORAGE      1.629    2.287     0  01:45        2.98        3.98      -0.044
  CPORBAN-I            STORAGE      1.564    3.156     0  01:34        2.87        7.07      -0.007
  CPORBUR-I            STORAGE      3.452    3.452     0  01:45        6.32        6.32      -0.026
  CPORCAN-I            STORAGE      1.132    2.428     0  01:38        2.07        8.64       0.008
  CPORDOM-I            STORAGE      1.664    2.766     0  01:34        3.05        9.02      -0.025
  CPORGRE-I            STORAGE      2.183    2.371     0  01:33           4        7.22      -0.045
  CPORHOM-I            STORAGE      1.405    1.405     0  01:45        2.57        2.57      -0.034
  CPORLIP-I            STORAGE      0.799    7.895     0  01:41        1.46        52.3       0.255
  CPORSHB-I            STORAGE      1.403    3.131     0  01:35        2.57          11      -0.023
  CPORSPR-I            STORAGE      1.393    1.975     0  01:45        2.55        5.57      -0.048
  CPORWLL-I            STORAGE      2.960    2.960     0  01:45        5.42        5.42       0.010
  CPREWAL              STORAGE      0.000    1.739     0  01:43           0        9.59       0.029
  CSARARL-I            STORAGE      1.870    2.378     0  01:45        3.43           4      -0.039
  CSARBUR-I            STORAGE      0.784    1.721     0  01:35        1.44        3.16       0.186
  CSIMELC-I            STORAGE      1.913    1.913     0  01:45        3.51        4.66       0.067
  CSIMPOR              STORAGE      0.000    1.887     0  01:36           0        6.64       0.045
  CSIMSAR-I            STORAGE      0.908    1.284     0  01:45        1.66        3.19      -0.394
  CSIMSTM-I            STORAGE      1.631    2.121     0  01:45        2.99        6.26      -0.032
  CSIMWEL-I            STORAGE      1.063    1.063     0  01:45        1.95        1.95       0.115
  CSMTING-I            STORAGE      0.980    2.037     0  01:35         1.8        4.13      -0.153
  CSTMSHB-I            STORAGE      1.687    1.687     0  01:45        3.09        3.09       0.403
  CWALPUR-I            STORAGE      0.447    3.769     0  01:40       0.819        17.2      -0.054
  CWELDOM-I            STORAGE      1.815    1.815     0  01:45        3.33        3.33       0.009
  CWELSHB-I            STORAGE      0.613    1.654     0  01:36        1.12         3.7       0.599
  CWSMARL-I            STORAGE      1.515    1.515     0  01:45        2.78        2.78      -0.003
  CWSMCAN-I            STORAGE      0.990    1.896     0  01:36        1.81        4.74      -0.008
  CWSMETH-I            STORAGE      1.109    1.705     0  01:45        2.03        3.75      -0.022
  CWSMWAL-I            STORAGE      1.203    2.416     0  01:37         2.2         6.8       0.095
  SALEMAU-I            STORAGE      1.912    2.414     0  01:34         3.5         9.4       0.007
  SALVNOT-I            STORAGE      0.991    7.568     0  01:44        1.82        31.9       0.040
  SALVSAR-I            STORAGE      0.784    8.916     0  01:43        1.44        38.4      -0.026
  SALVWEL-I            STORAGE      2.100    9.588     0  01:45        3.85        37.6      -0.714
  SBUR28               STORAGE      0.000    8.987     0  01:54           0        42.7       0.039
  SBUREIN-I            STORAGE      1.172    9.331     0  01:54        2.15        44.8      -0.001
  SBURELC-I            STORAGE      1.481    8.877     0  01:52        2.71        41.1      -0.008
  SBURPOR-I            STORAGE      1.417    9.760     0  01:55         2.6        47.4       0.001
  SBURSMT-I            STORAGE      0.863    9.049     0  01:52        1.58        42.7      -0.003
  SCANPAL              STORAGE      0.000    8.505     0  01:46           0        30.9      -0.000
  SCANPRE-I            STORAGE      0.997    4.112     0  01:55        1.83        17.6       0.067
  SCANWOL-I            STORAGE      3.294    9.485     0  01:45        6.04        30.9       0.003
  SCANWSM-I            STORAGE      1.365    5.719     0  01:45         2.5        22.5       0.017
  SDUM1-I              STORAGE      1.987    4.448     0  01:45        3.64        11.6       0.026
  SDUM2-I              STORAGE      2.957    3.844     0  01:45        5.41        8.02       0.186
  SDUM3-I              STORAGE      1.422    1.422     0  01:45        2.61        2.61      -0.101
  SDUM4                STORAGE      0.000    5.121     0  01:41           0        12.4      -0.227
  SDUM5                STORAGE      0.000    3.276     0  01:44           0        12.5       0.276
  SELCDOM-I            STORAGE      1.714    1.714     0  01:45        3.14        3.14      -0.034
  SLARWIL-I            STORAGE      1.610    7.425     0  01:43        2.95        23.5       0.064
  SLENWSM-I            STORAGE      1.798   10.310     0  01:56         3.3        50.7       0.001
  SMAULOG-I            STORAGE      1.574    1.997     0  01:35        2.88        6.45       0.400
  SMCP85-I             STORAGE      2.067    6.498     0  01:38         3.8          16       0.264
  SMCPMCD-I            STORAGE      1.407    7.995     0  01:42        2.58        26.1      -0.015
  SMCPNOT              STORAGE      0.000    7.989     0  01:43           0        30.1       0.058
  SMYRWIN-I            STORAGE      1.546    1.546     0  01:45        2.83        2.83      -0.014
  SNOTMYR-I            STORAGE      1.186    3.410     0  01:40        2.17        7.16       1.154
  SNOTWLL-I            STORAGE      1.186    1.186     0  01:45        2.17        2.17       0.677
  SPORDOM-I            STORAGE      0.000    1.736     0  01:37           0        4.08      -0.209
  SPORGRE-I            STORAGE      0.546    1.943     0  01:38           1        4.08       0.017
  SPORSHB-I            STORAGE      1.662   12.897     0  01:48        3.05        54.7      -0.000
  SPORSPR-I            STORAGE      0.533    1.582     0  01:40       0.977        3.08       0.004
  SPORWLL-I            STORAGE      1.134    1.134     0  01:45         2.1         2.1      -0.067
  SRUB02               STORAGE      0.000   10.420     0  02:00           0        51.6      -0.000
  SRUBPAL-I            STORAGE      0.495   10.423     0  02:00       0.906        51.6       0.000
  SRUBWOL-I            STORAGE      0.000   10.280     0  01:58           0        50.7      -0.001
  SSHB33               STORAGE      0.000    7.500     0  02:00           0        33.5       0.004
  SSHB54-I             STORAGE      1.599    5.702     0  01:42        2.93          22      -0.125
  SSHBELC-I            STORAGE      1.836    7.327     0  02:00        3.36        33.5       0.039
  SSHBNOT-I            STORAGE      1.837    6.707     0  01:42        3.37          23      -0.533
  SSHBPAL-I            STORAGE      2.050   15.284     0  01:46        3.76        61.9      -0.001
  SSHBSAR-I            STORAGE      2.255    6.543     0  02:00        4.13        30.7       1.788
  SSHBSTM-I            STORAGE      1.988    9.200     0  01:54        3.64        41.3      -0.021
  SSHBWEL-I            STORAGE      1.240    6.707     0  01:44        2.27        28.4      -0.037
  SSHBWLV-I            STORAGE      3.361   10.576     0  01:54        6.18        47.5       0.011
  SSHBWSM-I            STORAGE      1.874   13.934     0  01:48        3.43        58.1       0.000
  SSIMELC-I            STORAGE      1.913    3.322     0  01:37        3.51        9.37      -0.671
  SSIMPOR-I            STORAGE      0.667    3.932     0  01:45        1.22        15.8      -0.072
  SSIMSAR-I            STORAGE      1.546    2.310     0  01:37        2.83        5.91       0.580
  SSIMSTM-I            STORAGE      1.979    4.732     0  01:36        3.63        14.5       0.020
  SSIMWEL-I            STORAGE      0.594    1.376     0  01:38        1.09        3.08      -0.172
  SSTMARL-I            STORAGE      0.815    0.815     0  01:45        1.49        1.49       0.407
  SSTMDOM-I            STORAGE      0.531    2.142     0  01:43       0.972        4.11      -0.260
  SWELDOM-I            STORAGE      1.815    1.815     0  01:45        3.33        3.33       0.985
  SWELMRY-I            STORAGE      0.560    0.763     0  01:43       0.986       0.996      -0.269
  SWELVIC-I            STORAGE      0.561    0.986     0  01:44       0.987        1.99       0.109
  SWOLHOM-I            STORAGE      1.312    1.312     0  01:45         2.4         2.4       0.001
  SWSMARL-I            STORAGE      0.757    0.757     0  01:45        1.39        1.39      -0.074
  SWSMHOM-I            STORAGE      0.555    1.187     0  01:42        1.02        2.41       0.038
  SXANALE-I            STORAGE      3.179    4.433     0  01:45        5.83        15.2       0.116
  SXANELG-I            STORAGE      2.907    6.507     0  01:45        5.33        20.5      -0.624
  
  
  **********************
  Node Surcharge Summary
  **********************
  
  Surcharging occurs when water rises above the top of the highest conduit.
  ---------------------------------------------------------------------
                                               Max. Height   Min. Depth
                                   Hours       Above Crown    Below Rim
  Node                 Type      Surcharged         Meters       Meters
  ---------------------------------------------------------------------
  SCANOUT1             JUNCTION        0.57          6.488        0.487
  XCAUBPAL             JUNCTION        0.24          0.173        1.517
  
  
  *********************
  Node Flooding Summary
  *********************
  
  Flooding refers to all water that overflows a node, whether it ponds or not.
  --------------------------------------------------------------------------
                                                             Total   Maximum
                                 Maximum   Time of Max       Flood    Ponded
                        Hours       Rate    Occurrence      Volume     Depth
  Node                 Flooded       CMS   days hr:min    10^6 ltr    Meters
  --------------------------------------------------------------------------
  CALEXAN-I               0.55     3.488      0  01:40       3.035     0.000
  CCANPRE-I               0.06     0.441      0  01:45       0.060     0.000
  CCECROY-I               1.37     0.810      0  01:45       2.208     0.000
  CELCGRF-I               0.47     2.280      0  01:45       1.473     0.000
  CHEN90-I                0.01     0.921      0  01:38       0.027     0.000
  CHIGMAU-I               0.38     2.246      0  01:39       1.321     0.000
  CLIP35                  0.02     0.069      0  01:45       0.003     0.000
  CLIPNOT-I               0.71     6.324      0  01:45       7.545     0.000
  CLOGCEC-I               0.44     1.358      0  01:45       0.871     0.000
  CLOGELE-I               0.87     1.118      0  01:45       1.639     0.000
  CLOGQUE-I               0.53     1.051      0  01:45       1.329     0.000
  CLOGVIN-I               0.22     0.917      0  01:45       0.497     0.000
  CLOGWNK-I               1.08     1.606      0  01:45       2.884     0.000
  CLOGYEO-I               0.42     0.322      0  01:45       0.229     0.000
  CMCPBAN-I               0.41     3.906      0  01:43       2.280     0.000
  CMCPLOG-I               0.16     0.707      0  01:43       0.294     0.000
  CMCPPAC-I               0.09     1.708      0  01:39       0.226     0.000
  CMRYCSO                 0.51     0.421      0  01:46       0.420     0.000
  CNOTDOM-I               0.89     3.262      0  01:45       3.725     0.000
  CNOTSHB-I               0.81     1.451      0  01:45       1.422     0.000
  CPAC72-I                0.15     0.471      0  01:43       0.187     0.000
  CPAC75-I                0.83     2.287      0  01:45       2.765     0.000
  CPORBUR-I               0.45     3.359      0  01:45       2.115     0.000
  CPORDOM-I               0.24     1.408      0  01:45       0.579     0.000
  CPORGRE-I               0.30     1.470      0  01:45       1.022     0.000
  CPORHOM-I               0.17     1.011      0  01:45       0.307     0.000
  CPORSPR-I               0.61     1.975      0  01:45       2.355     0.000
  CPORWLL-I               0.68     2.596      0  01:45       2.635     0.000
  CSARARL-I               0.68     2.378      0  01:45       2.438     0.000
  CSARBUR-I               0.12     0.654      0  01:45       0.190     0.000
  CSIMELC-I               0.30     1.230      0  01:45       0.802     0.000
  CSIMSAR-I               0.96     1.284      0  01:45       2.049     0.000
  CSIMSTM-I               0.52     2.121      0  01:45       1.892     0.000
  CSIMWEL-I               0.91     0.969      0  01:45       1.063     0.000
  CSMTING-I               0.11     0.445      0  01:45       0.106     0.000
  CSTMSHB-I               0.28     1.342      0  01:45       0.742     0.000
  CWELDOM-I               0.41     1.279      0  01:45       0.803     0.000
  CWELSHB-I               0.40     1.335      0  01:42       0.755     0.000
  CWSMARL-I               0.45     1.435      0  01:45       1.196     0.000
  CWSMCAN-I               0.02     0.093      0  01:45       0.004     0.000
  CWSMETH-I               0.27     1.704      0  01:45       0.829     0.000
  
  
  **********************
  Storage Volume Summary
  **********************
  
  --------------------------------------------------------------------------------------------------
                         Average     Avg  Evap Exfil       Maximum     Max    Time of Max    Maximum
                          Volume    Pcnt  Pcnt  Pcnt        Volume    Pcnt     Occurrence    Outflow
  Storage Unit           1000 m3    Full  Loss  Loss       1000 m3    Full    days hr:min        CMS
  --------------------------------------------------------------------------------------------------
  CALEXAN-I                0.027      28     0     0         0.096     100       0  01:38      0.719
  CAUBPAL-I                0.013      14     0     0         0.096      98       0  01:52      8.000
  CAUBPOR                  0.021      22     0     0         0.098      98       0  01:45      9.105
  CAUBSPS                  0.001       1     0     0         0.002       2       0  01:46      8.000
  CAUBWOL-I                0.016      16     0     0         0.097      98       0  01:51      9.870
  CAUBWSM-I                0.017      17     0     0         0.097      98       0  01:51      9.203
  CCANPRE-I                0.013      14     0     0         0.096     100       0  01:43      1.739
  CCECROY-I                0.029      32     0     0         0.090     100       0  01:34      0.077
  CCORDIV                  0.002       2     0     0         0.035      37       0  01:47      3.406
  CCORMID-I                0.004       4     0     0         0.072      73       0  01:46      3.497
  CELCGRF-I                0.028      29     0     0         0.096     100       0  01:34      1.285
  CELCING-I                0.030      31     0     0         0.097      99       0  01:42      1.652
  CHEN90-I                 0.025      26     0     0         0.096     100       0  01:38      2.367
  CHIGMAU-I                0.025      26     0     0         0.096     100       0  01:38      0.513
  CLIP25                   0.023      24     0     0         0.098      99       0  01:45      5.149
  CLIP35                   0.025      25     0     0         0.098     100       0  01:45      4.061
  CLIPELC-I                0.025      25     0     0         0.098      99       0  01:45      4.531
  CLIPNOT-I                0.031      32     0     0         0.097     100       0  01:38      3.122
  CLIPSAR-I                0.027      27     0     0         0.098      99       0  01:41      4.072
  CLIPSMT-I                0.024      25     0     0         0.098      99       0  01:45      5.731
  CLIPWEL-I                0.030      30     0     0         0.098      99       0  01:40      3.155
  CLIPYAR                  0.030      31     0     0         0.097     100       0  01:40      2.589
  CLOG80-I                 0.026      27     0     0         0.097      99       0  01:38      2.274
  CLOGCEC-I                0.034      36     0     0         0.095     100       0  01:34      0.843
  CLOGELE-I                0.038      40     0     0         0.095     100       0  01:34      0.443
  CLOGQUE-I                0.037      38     0     0         0.095     100       0  01:34      0.228
  CLOGVIN-I                0.037      39     0     0         0.096     100       0  01:34      1.076
  CLOGWNK-I                0.038      40     0     0         0.095     100       0  01:35      0.760
  CLOGYEO-I                0.037      39     0     0         0.096     100       0  01:37      0.488
  CMCPBAN-I                0.028      29     0     0         0.097     100       0  01:37      1.824
  CMCPELG-I                0.027      28     0     0         0.097     100       0  01:41      2.101
  CMCPLOG-I                0.032      33     0     0         0.096     100       0  01:38      0.712
  CMCPPAC-I                0.028      29     0     0         0.096     100       0  01:37      2.657
  CMCPROS                  0.028      29     0     0         0.097     100       0  01:38      1.536
  CMCPWIN-I                0.030      30     0     0         0.097     100       0  01:38      3.543
  CMRYCOR-I                0.010      11     0     0         0.094      96       0  01:46      3.784
  CMRYCSO                  0.022      24     0     0         0.095     100       0  01:43      0.932
  CMRYWSM-I                0.007       7     0     0         0.095      97       0  01:46      3.385
  CNOTDOM-I                0.031      32     0     0         0.096     100       0  01:31      0.930
  CNOTSHB-I                0.034      35     0     0         0.096     100       0  01:33      1.165
  CPAC72-I                 0.025      26     0     0         0.095     100       0  01:37      1.271
  CPAC75-I                 0.018      20     0     0         0.092     100       0  01:36      0.901
  CPORBAN-I                0.030      31     0     0         0.098     100       0  01:44      2.838
  CPORBUR-I                0.027      28     0     0         0.097     100       0  01:33      1.956
  CPORCAN-I                0.013      13     0     0         0.097     100       0  01:44      1.715
  CPORDOM-I                0.021      21     0     0         0.099     100       0  01:35      1.971
  CPORGRE-I                0.020      20     0     0         0.099     100       0  01:34      1.490
  CPORHOM-I                0.015      16     0     0         0.096     100       0  01:39      1.214
  CPORLIP-I                0.023      23     0     0         0.098      99       0  01:45      7.341
  CPORSHB-I                0.020      21     0     0         0.094      96       0  01:45      2.827
  CPORSPR-I                0.019      19     0     0         0.098     100       0  01:33      0.772
  CPORWLL-I                0.018      18     0     0         0.099     100       0  01:32      0.839
  CPREWAL                  0.014      14     0     0         0.096      99       0  01:45      1.600
  CSARARL-I                0.025      27     0     0         0.095     100       0  01:34      1.078
  CSARBUR-I                0.029      30     0     0         0.096     100       0  01:40      1.243
  CSIMELC-I                0.021      22     0     0         0.095     100       0  01:35      0.687
  CSIMPOR                  0.014      15     0     0         0.096     100       0  01:45      1.399
  CSIMSAR-I                0.021      25     0     0         0.087     100       0  01:33      0.236
  CSIMSTM-I                0.023      24     0     0         0.095     100       0  01:35      0.785
  CSIMWEL-I                0.012      26     0     0         0.048     100       0  01:32      0.209
  CSMTING-I                0.028      28     0     0         0.097     100       0  01:40      1.762
  CSTMSHB-I                0.025      26     0     0         0.097     100       0  01:35      1.200
  CWALPUR-I                0.014      14     0     0         0.097      99       0  01:45      3.393
  CWELDOM-I                0.021      22     0     0         0.095     100       0  01:35      1.128
  CWELSHB-I                0.024      25     0     0         0.095     100       0  01:38      0.925
  CWSMARL-I                0.009      12     0     0         0.070     100       0  01:35      0.747
  CWSMCAN-I                0.010      12     0     0         0.084     100       0  01:44      1.351
  CWSMETH-I                0.009      12     0     0         0.077     100       0  01:36      1.046
  CWSMWAL-I                0.010      11     0     0         0.093      98       0  01:45      2.113
  SALEMAU-I                0.008       4     0     0         0.091      48       0  01:52      2.299
  SALVNOT-I                0.003       8     0     0         0.035      86       0  01:54      6.733
  SALVSAR-I                0.005       9     0     0         0.042      86       0  01:56      8.336
  SALVWEL-I                0.004       8     0     0         0.042      86       0  01:55      8.207
  SBUR28                   0.004       9     0     0         0.035      67       0  01:58      8.938
  SBUREIN-I                0.005       9     0     0         0.034      66       0  01:58      9.295
  SBURELC-I                0.005       9     0     0         0.041      83       0  01:57      8.739
  SBURPOR-I                0.005       9     0     0         0.032      63       0  01:59      9.719
  SBURSMT-I                0.005       9     0     0         0.039      80       0  01:58      8.987
  SCANPAL                  0.004       2     0     0         0.033      20       0  01:47      8.224
  SCANPRE-I                0.005       7     0     0         0.048      69       0  01:47      4.281
  SCANWOL-I                0.007       6     0     0         0.072      64       0  01:45      8.949
  SCANWSM-I                0.005       7     0     0         0.044      64       0  01:46      5.631
  SDUM1-I                  0.003       3     0     0         0.032      40       0  01:49      3.574
  SDUM2-I                  0.002       3     0     0         0.022      41       0  01:47      2.623
  SDUM3-I                  0.001       1     0     0         0.011      27       0  01:47      1.195
  SDUM4                    0.003       4     0     0         0.038      48       0  01:50      3.276
  SDUM5                    0.003       4     0     0         0.038      49       0  01:50      3.153
  SELCDOM-I                0.000       0     0     0         0.001       3       0  01:45      1.626
  SLARWIL-I                0.006       7     0     0         0.064      68       0  01:53      6.636
  SLENWSM-I                0.004       8     0     0         0.025      45       0  02:00     10.280
  SMAULOG-I                0.006       4     0     0         0.066      48       0  01:53      1.581
  SMCP85-I                 0.006       4     0     0         0.067      44       0  01:49      5.121
  SMCPMCD-I                0.004      12     0     0         0.024      80       0  01:54      7.821
  SMCPNOT                  0.003       8     0     0         0.032      84       0  01:55      6.814
  SMYRWIN-I                0.006       5     0     0         0.072      56       0  01:53      1.274
  SNOTMYR-I                0.007       5     0     0         0.079      61       0  01:47      3.053
  SNOTWLL-I                0.003       7     0     0         0.035      93       0  01:45      1.116
  SPORDOM-I                0.002       4     0     0         0.028      68       0  01:46      1.686
  SPORGRE-I                0.001       2     0     0         0.019      46       0  01:46      1.736
  SPORSHB-I                0.008       7     0     0         0.066      61       0  01:46     13.091
  SPORSPR-I                0.000       1     0     0         0.011      28       0  01:46      1.455
  SPORWLL-I                0.000       0     0     0         0.004       9       0  01:45      1.081
  SRUB02                   0.006      14     0     0         0.011      26       0  01:57     10.422
  SRUBPAL-I                0.004       9     0     0         0.012      29       0  02:00     10.420
  SRUBWOL-I                0.004       8     0     0         0.019      36       0  02:00     10.272
  SSHB33                   0.006       6     0     0         0.066      67       0  01:48      7.682
  SSHB54-I                 0.006       5     0     0         0.068      62       0  01:52      5.147
  SSHBELC-I                0.006       6     0     0         0.067      68       0  01:48      7.500
  SSHBNOT-I                0.006       6     0     0         0.075      73       0  01:51      5.175
  SSHBPAL-I                0.009       8     0     0         0.054      45       0  01:46     15.290
  SSHBSAR-I                0.006       6     0     0         0.064      66       0  01:50      6.778
  SSHBSTM-I                0.007       7     0     0         0.066      73       0  01:47      9.441
  SSHBWEL-I                0.006       6     0     0         0.070      65       0  01:50      6.322
  SSHBWLV-I                0.008       7     0     0         0.071      63       0  01:47     10.814
  SSHBWSM-I                0.008       7     0     0         0.064      53       0  01:46     14.069
  SSIMELC-I                0.004       6     0     0         0.049      70       0  01:50      2.445
  SSIMPOR-I                0.004       6     0     0         0.049      66       0  01:48      3.769
  SSIMSAR-I                0.003       4     0     0         0.038      49       0  01:52      1.644
  SSIMSTM-I                0.005       6     0     0         0.052      70       0  01:49      3.331
  SSIMWEL-I                0.002       3     0     0         0.031      46       0  01:50      0.956
  SSTMARL-I                0.003       6     0     0         0.032      70       0  01:47      0.643
  SSTMDOM-I                0.001       3     0     0         0.027      66       0  01:47      1.804
  SWELDOM-I                0.003       4     0     0         0.044      56       0  01:51      1.677
  SWELMRY-I                0.002       3     0     0         0.035      45       0  01:52      0.466
  SWELVIC-I                0.002       3     0     0         0.029      43       0  01:53      0.843
  SWOLHOM-I                0.001       4     0     0         0.033      86       0  01:45      1.177
  SWSMARL-I                0.001       2     0     0         0.025      65       0  01:46      0.669
  SWSMHOM-I                0.002       4     0     0         0.033      83       0  01:46      0.985
  SXANALE-I                0.007       5     0     0         0.069      48       0  01:52      3.632
  SXANELG-I                0.006       6     0     0         0.067      60       0  01:53      5.842
  
  
  ***********************
  Outfall Loading Summary
  ***********************
  
  -----------------------------------------------------------
                         Flow       Avg       Max       Total
                         Freq      Flow      Flow      Volume
  Outfall Node           Pcnt       CMS       CMS    10^6 ltr
  -----------------------------------------------------------
  SAUBOUT               95.73     2.992    15.290      61.867
  SCANOUT               87.38     1.639     8.224      30.940
  SRUBOUT               95.48     2.504    10.422      51.634
  CAUBOUT               95.80     3.191     8.000      66.019
  CCOROUT               95.03     0.750     3.404      15.393
  CMRYOUT               95.21     0.288     0.932       5.915
  -----------------------------------------------------------
  System                94.11    11.364    45.530     231.768
  
  
  ********************
  Link Flow Summary
  ********************
  
  -----------------------------------------------------------------------------
                                 Maximum  Time of Max   Maximum    Max/    Max/
                                  |Flow|   Occurrence   |Veloc|    Full    Full
  Link                 Type          CMS  days hr:min     m/sec    Flow   Depth
  -----------------------------------------------------------------------------
  CHEN90               CONDUIT     1.365     0  01:39      0.74    0.84    1.00
  CHIGMAU              CONDUIT     1.005     0  01:39      0.59    1.00    1.00
  CPORSHB              CONDUIT     2.827     0  01:36      4.31    1.68    1.00
  CPORDOM              CONDUIT     1.971     0  01:35      3.00    1.93    1.00
  CPORGRE              CONDUIT     1.490     0  01:34      2.27    1.47    1.00
  CPORSPR              CONDUIT     0.772     0  01:33      1.84    0.82    1.00
  CPORWLL              CONDUIT     0.839     0  01:32      1.84    1.34    1.00
  CPORBAN              CONDUIT     2.838     0  01:35      4.33    1.66    1.00
  CPORBUR              CONDUIT     1.956     0  01:33      2.98    2.48    1.00
  CSMTING              CONDUIT     1.762     0  01:36      3.86    1.94    1.00
  CSTMSHB              CONDUIT     1.200     0  01:35      2.63    3.12    1.00
  CELCING              CONDUIT     1.652     0  01:35      2.52    0.97    1.00
  CELCGRF              CONDUIT     1.285     0  01:34      2.82    2.44    1.00
  CWELSHB              CONDUIT     0.925     0  01:37      1.43    1.12    1.00
  CWELDOM              CONDUIT     1.128     0  01:36      2.47    1.93    1.00
  CNOTSHB              CONDUIT     1.165     0  01:33      2.56    2.21    1.00
  CNOTDOM              CONDUIT     0.930     0  01:31      2.04    1.70    1.00
  CPAC72               CONDUIT     1.271     0  01:36      1.94    1.45    1.00
  CPAC75               CONDUIT     0.901     0  01:32      1.59    0.68    1.00
  CLOGYEO              CONDUIT     0.488     0  03:44      1.07    1.41    1.00
  CLOGWNK              CONDUIT     0.760     0  01:34      1.67    2.23    1.00
  CAUBWOL              CONDUIT     9.870     0  01:43      2.47    2.47    1.00
  XCAUBPAL             CONDUIT     8.857     0  01:43      0.94    0.68    1.00
  CAUBWSM              CONDUIT     9.203     0  01:44      2.22    1.91    1.00
  CAUBPOR              CONDUIT     9.105     0  01:44      2.48    2.82    1.00
  CPORLIP              CONDUIT     7.341     0  01:41      2.19    1.67    1.00
  CLIP25               CONDUIT     5.149     0  01:42      1.54    1.54    1.00
  CLIPSMT              CONDUIT     5.731     0  01:41      1.71    1.71    1.00
  CLIP35               CONDUIT     4.061     0  02:32      1.21    1.29    1.00
  CLIPELC              CONDUIT     4.531     0  01:40      1.35    1.45    1.00
  CLIPSAR              CONDUIT     4.072     0  01:39      1.38    1.45    1.00
  CLIPWEL              CONDUIT     3.155     0  01:38      1.27    1.40    1.00
  CLIPYAR              CONDUIT     2.589     0  02:43      1.08    1.20    1.00
  CLIPNOT              CONDUIT     3.122     0  01:35      1.31    1.46    1.00
  CMCPWIN              CONDUIT     3.055     0  01:39      1.28    1.46    1.00
  CMCPBAN              CONDUIT     1.824     0  03:05      0.82    0.62    1.00
  CMCPELG              CONDUIT     2.101     0  01:45      0.88    0.90    1.00
  CMCPROS              CONDUIT     1.536     0  03:04      0.88    0.73    1.00
  CMCPPAC              CONDUIT     2.162     0  01:33      1.07    1.16    1.00
  CMCPLOG              CONDUIT     0.712     0  01:36      0.94    0.86    1.00
  CALEXAN              CONDUIT     1.078     0  01:43      0.58    0.71    1.00
  CLOG80               CONDUIT     2.274     0  01:40      1.23    1.41    1.00
  CLOGELE              CONDUIT     0.443     0  01:34      0.97    1.32    1.00
  CLOGVIN              CONDUIT     0.638     0  01:45      1.40    1.94    1.00
  CLOGQUE              CONDUIT     0.438     0  01:47      0.96    1.62    1.00
  CLOGCEC              CONDUIT     0.341     0  01:32      0.75    0.88    1.00
  CCECROY              CONDUIT     0.641     0  01:34      1.41    1.20    1.00
  CSARBUR              CONDUIT     1.243     0  01:36      1.89    1.15    1.00
  CSARARL              CONDUIT     1.078     0  01:34      2.36    1.72    1.00
  CCOROUT1             CONDUIT     3.404     0  01:47      3.26    0.84    0.74
  CCORMID              CONDUIT     3.497     0  01:45      1.98    1.71    1.00
  CMRYCOR              CONDUIT     2.436     0  01:47      1.38    1.16    1.00
  CMRYCSO              CONDUIT     0.932     0  01:48      2.23   18.67    0.90
  CMRYWSM              CONDUIT     3.385     0  01:47      1.98    1.67    1.00
  CWALPUR              CONDUIT     3.393     0  01:44      2.65    2.11    1.00
  CWSMWAL              CONDUIT     2.113     0  01:38      3.22    2.16    1.00
  CWSMCAN              CONDUIT     1.351     0  01:37      2.06    1.62    1.00
  CWSMETH              CONDUIT     1.046     0  01:36      1.59    1.22    1.00
  CWSMARL              CONDUIT     0.747     0  01:35      1.64    1.53    1.00
  CPREWAL              CONDUIT     1.600     0  01:44      1.25    1.03    1.00
  CCANPRE              CONDUIT     1.739     0  01:43      1.36    1.18    1.00
  CPORCAN              CONDUIT     1.715     0  01:39      1.34    1.27    1.00
  CSIMPOR              CONDUIT     1.399     0  01:38      1.84    1.44    1.00
  CPORHOM              CONDUIT     1.214     0  01:39      2.66    1.94    1.00
  CSIMSTM              CONDUIT     0.785     0  01:35      1.72    1.85    1.00
  CSIMELC              CONDUIT     0.459     0  01:35      1.01    1.00    1.00
  CSIMSAR              CONDUIT     0.283     0  01:46      0.97    1.38    1.00
  CSIMWEL              CONDUIT     0.209     0  01:26      0.82    0.71    1.00
  CAUBSPS              CONDUIT     8.000     0  01:46      2.31    1.45    0.53
  SSHBPAL              CONDUIT    15.290     0  01:47      2.35    2.34    0.97
  SSHBWSM              CONDUIT    14.069     0  01:49      2.21    1.37    1.00
  SPORSHB              CONDUIT    13.091     0  01:49      2.05    1.27    1.00
  SPORDOM              CONDUIT     1.686     0  01:47      0.95    0.48    1.00
  SPORGRE              CONDUIT     1.736     0  01:37      1.75    0.64    1.00
  SPORSPR              CONDUIT     1.455     0  01:38      1.69    0.53    1.00
  SPORWLL              CONDUIT     1.081     0  01:40      1.54    0.40    1.00
  SSHBWLV              CONDUIT    10.814     0  01:52      1.89    1.10    1.00
  SSHBSTM              CONDUIT     9.441     0  01:55      1.65    0.93    1.00
  SSTMDOM              CONDUIT     1.804     0  01:37      1.80    0.61    1.00
  SELCDOM              CONDUIT     1.626     0  01:43      2.17    0.61    0.83
  SSHB33               CONDUIT     7.682     0  02:04      1.66    1.03    1.00
  SSHBELC              CONDUIT     7.500     0  02:00      1.66    1.29    1.00
  SSHBSAR              CONDUIT     6.778     0  02:06      1.46    1.05    1.00
  SSHBWEL              CONDUIT     5.984     0  02:08      1.50    1.19    1.00
  SSHB54               CONDUIT     5.147     0  02:03      1.42    1.14    1.00
  SSHBNOT              CONDUIT     4.530     0  02:04      1.25    1.00    1.00
  SRS-XCON1            CONDUIT     1.276     0  01:45      1.13    0.95    1.00
  SRS-XCON2            CONDUIT     1.349     0  01:45      1.19    1.38    1.00
  SNOTMYR              CONDUIT     3.053     0  01:40      1.77    1.65    1.00
  SMYRWIN              CONDUIT     1.274     0  01:39      0.72    0.42    1.00
  SNOTWLL              CONDUIT     1.116     0  01:45      3.94    1.66    1.00
  SRUB02               CONDUIT    10.422     0  02:01      1.84    1.91    0.97
  SRUBWOL              CONDUIT    10.272     0  01:58      1.79    1.67    1.00
  XSRUBPAL             CONDUIT    10.274     0  02:01      1.22    0.94    0.70
  SLENWSM              CONDUIT    10.280     0  01:58      1.80    1.23    1.00
  SBURPOR              CONDUIT     9.719     0  01:56      1.70    1.32    1.00
  SBUREIN              CONDUIT     9.295     0  01:55      1.62    1.20    1.00
  SBUR28               CONDUIT     8.938     0  01:55      1.56    1.13    1.00
  SBURSMT              CONDUIT     8.987     0  01:54      1.76    1.37    1.00
  SBURELC              CONDUIT     8.739     0  01:53      1.71    1.22    1.00
  SALVSAR              CONDUIT     8.336     0  01:52      1.63    1.33    1.00
  SALVWEL              CONDUIT     8.207     0  01:50      1.60    1.22    1.00
  SALVNOT              CONDUIT     6.733     0  01:48      1.49    1.16    1.00
  SMCPNOT              CONDUIT     6.814     0  01:46      1.70    1.25    1.00
  SMCPMCD              CONDUIT     7.821     0  01:42      1.87    1.34    1.00
  SLARWIL              CONDUIT     6.636     0  01:42      2.22    2.30    1.00
  SXANELG              CONDUIT     5.842     0  01:43      1.96    1.56    1.00
  SXANALE              CONDUIT     3.632     0  01:45      1.43    1.57    1.00
  SALEMAU              CONDUIT     2.299     0  01:51      0.90    0.95    1.00
  SMAULOG              CONDUIT     1.581     0  01:51      0.66    0.41    1.00
  SMCP85               CONDUIT     1.124     0  02:24      0.98    0.93    1.00
  SCANOUT1             CONDUIT     8.224     0  01:47      2.82    2.60    0.91
  SCANWOL              CONDUIT     8.949     0  01:45      2.92    1.82    1.00
  XSCANPAL             CONDUIT     8.505     0  01:46      1.39    1.95    0.83
  SCANWSM              CONDUIT     5.631     0  01:48      1.89    1.72    1.00
  SWSMHOM              CONDUIT     0.985     0  01:42      1.24    0.47    1.00
  SWSMARL              CONDUIT     0.669     0  01:37      1.52    0.31    1.00
  SCANPRE              CONDUIT     4.281     0  01:55      1.68    1.31    1.00
  SSIMPOR              CONDUIT     3.769     0  01:57      1.76    1.06    1.00
  SSIMSTM              CONDUIT     3.331     0  02:00      1.68    1.09    1.00
  SSTMARL              CONDUIT     0.643     0  01:45      0.73    0.59    1.00
  SSIMELC              CONDUIT     2.445     0  01:36      1.40    1.07    1.00
  SSIMSAR              CONDUIT     1.644     0  01:37      1.59    1.06    1.00
  SSIMWEL              CONDUIT     0.956     0  02:19      1.02    0.71    1.00
  SWELVIC              CONDUIT     0.843     0  01:38      1.13    0.67    1.00
  SWELMRY              CONDUIT     0.466     0  01:39      0.85    0.36    1.00
  SWELDOM              CONDUIT     1.677     0  01:40      2.62    0.55    1.00
  SWOLHOM              CONDUIT     1.177     0  01:45      1.18    0.47    1.00
  SDUM1                CONDUIT     3.574     0  01:38      1.56    1.16    1.00
  SDUM2                CONDUIT     2.623     0  01:39      1.48    1.23    1.00
  SDUM3                CONDUIT     1.195     0  01:37      0.94    0.34    1.00
  SMCP85A              CONDUIT     5.121     0  01:41      2.07    1.71    1.00
  SDUM4                CONDUIT     3.276     0  01:44      1.29    1.09    1.00
  SDUM5                CONDUIT     3.153     0  02:06      1.24    1.05    1.00
  PUMP1@SCANPAL-SCANOUT1 PUMP        8.224     0  01:47              0.55
  PUMP2@SRUBPAL-I-SRUB02 PUMP       10.420     0  02:00              0.69
  PUMP3@CAUBPAL-I-CAUBSPS PUMP        8.000     0  01:42              1.00
  PUMP4@CCORDIV-CCOROUT1 PUMP        3.406     0  01:47              0.68
  PUMP5@CMRYCOR-I-CMRYCSO PUMP        1.353     0  01:46              0.97
  
  
  ***************************
  Flow Classification Summary
  ***************************
  
  -------------------------------------------------------------------------------------
                      Adjusted    ---------- Fraction of Time in Flow Class ---------- 
                       /Actual         Up    Down  Sub   Sup   Up    Down  Norm  Inlet 
[...]
  CLOGELE                 1.00   0.04  0.00  0.00  0.96  0.00  0.00  0.00  0.39  0.00
  CLOGVIN                 1.00   0.04  0.00  0.00  0.96  0.00  0.00  0.00  0.26  0.00
  CLOGQUE                 1.00   0.04  0.00  0.00  0.96  0.00  0.00  0.00  0.37  0.00
  CLOGCEC                 1.00   0.04  0.00  0.00  0.96  0.00  0.00  0.00  0.38  0.00
  CCECROY                 1.00   0.04  0.00  0.00  0.96  0.00  0.00  0.00  0.50  0.00
  CSARBUR                 1.00   0.04  0.00  0.00  0.83  0.00  0.00  0.13  0.25  0.00
  CSARARL                 1.00   0.04  0.00  0.00  0.94  0.01  0.00  0.00  0.39  0.00
  CCOROUT1                1.00   0.04  0.00  0.00  0.39  0.56  0.00  0.00  0.04  0.00
  CCORMID                 1.00   0.04  0.00  0.00  0.68  0.28  0.00  0.00  0.00  0.00
  CMRYCOR                 1.00   0.04  0.00  0.00  0.95  0.00  0.00  0.00  0.56  0.00
  CMRYCSO                 1.00   0.00  0.00  0.00  1.00  0.00  0.00  0.00  0.00  0.00
  CMRYWSM                 1.00   0.04  0.00  0.00  0.96  0.00  0.00  0.00  0.00  0.00
  CWALPUR                 1.00   0.04  0.00  0.00  0.96  0.00  0.00  0.00  0.46  0.00
  CWSMWAL                 1.00   0.04  0.00  0.00  0.55  0.00  0.00  0.41  0.12  0.00
  CWSMCAN                 1.00   0.04  0.00  0.00  0.96  0.00  0.00  0.00  0.65  0.00
  CWSMETH                 1.00   0.04  0.05  0.00  0.91  0.00  0.00  0.00  0.68  0.00
  CWSMARL                 1.00   0.09  0.05  0.00  0.86  0.00  0.00  0.00  0.71  0.00
  CPREWAL                 1.00   0.04  0.00  0.00  0.96  0.00  0.00  0.00  0.43  0.00
  CCANPRE                 1.00   0.04  0.00  0.00  0.96  0.00  0.00  0.00  0.39  0.00
  CPORCAN                 1.00   0.04  0.00  0.00  0.96  0.00  0.00  0.00  0.50  0.00
  CSIMPOR                 1.00   0.04  0.00  0.00  0.96  0.00  0.00  0.00  0.44  0.00
  CPORHOM                 1.00   0.04  0.00  0.00  0.93  0.03  0.00  0.00  0.46  0.00
  CSIMSTM                 1.00   0.04  0.00  0.00  0.96  0.00  0.00  0.00  0.51  0.00
  CSIMELC                 1.00   0.04  0.00  0.00  0.96  0.00  0.00  0.00  0.57  0.00
  CSIMSAR                 1.00   0.04  0.00  0.00  0.96  0.00  0.00  0.00  0.62  0.00
  CSIMWEL                 1.00   0.04  0.00  0.00  0.57  0.00  0.00  0.39  0.21  0.00
  CAUBSPS                 1.00   0.00  0.00  0.00  1.00  0.00  0.00  0.00  0.00  0.00
  SSHBPAL                 1.00   0.00  0.00  0.00  1.00  0.00  0.00  0.00  0.00  0.00
  SSHBWSM                 1.00   0.00  0.00  0.00  1.00  0.00  0.00  0.00  0.00  0.00
  SPORSHB                 1.00   0.00  0.00  0.00  1.00  0.00  0.00  0.00  0.00  0.00
  SPORDOM                 1.00   0.00  0.00  0.00  1.00  0.00  0.00  0.00  0.00  0.00
  SPORGRE                 1.00   0.00  0.04  0.00  0.95  0.00  0.00  0.00  0.72  0.00
  SPORSPR                 1.00   0.04  0.11  0.00  0.85  0.00  0.00  0.00  0.77  0.00
  SPORWLL                 1.00   0.15  0.04  0.00  0.81  0.00  0.00  0.00  0.83  0.00
  SSHBWLV                 1.00   0.00  0.00  0.00  1.00  0.00  0.00  0.00  0.00  0.00
  SSHBSTM                 1.00   0.00  0.00  0.00  1.00  0.00  0.00  0.00  0.00  0.00
  SSTMDOM                 1.00   0.00  0.04  0.00  0.96  0.00  0.00  0.00  0.80  0.00
  SELCDOM                 1.00   0.04  0.10  0.00  0.79  0.06  0.00  0.00  0.78  0.00
  SSHB33                  1.00   0.00  0.00  0.00  1.00  0.00  0.00  0.00  0.00  0.00
  SSHBELC                 1.00   0.00  0.00  0.00  1.00  0.00  0.00  0.00  0.00  0.00
  SSHBSAR                 1.00   0.00  0.00  0.00  1.00  0.00  0.00  0.00  0.00  0.00
  SSHBWEL                 1.00   0.00  0.00  0.00  1.00  0.00  0.00  0.00  0.06  0.00
  SSHB54                  1.00   0.00  0.04  0.00  0.76  0.00  0.00  0.19  0.08  0.00
  SSHBNOT                 1.00   0.04  0.00  0.00  0.96  0.00  0.00  0.00  0.55  0.00
  SRS-XCON1               1.00   0.04  0.00  0.00  0.96  0.00  0.00  0.00  0.46  0.00
  SRS-XCON2               1.00   0.00  0.00  0.00  1.00  0.00  0.00  0.00  0.00  0.00
  SNOTMYR                 1.00   0.04  0.00  0.00  0.51  0.00  0.00  0.45  0.13  0.00
  SMYRWIN                 1.00   0.04  0.00  0.00  0.96  0.00  0.00  0.00  0.54  0.00
  SNOTWLL                 1.00   0.04  0.00  0.00  0.17  0.01  0.00  0.78  0.06  0.00
  SRUB02                  1.00   0.00  0.00  0.00  1.00  0.00  0.00  0.00  0.00  0.00
  SRUBWOL                 1.00   0.00  0.00  0.00  1.00  0.00  0.00  0.00  0.00  0.00
  XSRUBPAL                1.00   0.00  0.00  0.00  1.00  0.00  0.00  0.00  0.00  0.00
  SLENWSM                 1.00   0.00  0.00  0.00  1.00  0.00  0.00  0.00  0.00  0.00
  SBURPOR                 1.00   0.00  0.00  0.00  1.00  0.00  0.00  0.00  0.00  0.00
  SBUREIN                 1.00   0.00  0.00  0.00  1.00  0.00  0.00  0.00  0.00  0.00
  SBUR28                  1.00   0.00  0.00  0.00  1.00  0.00  0.00  0.00  0.00  0.00
  SBURSMT                 1.00   0.00  0.00  0.00  1.00  0.00  0.00  0.00  0.00  0.00
  SBURELC                 1.00   0.00  0.00  0.00  1.00  0.00  0.00  0.00  0.00  0.00
  SALVSAR                 1.00   0.00  0.00  0.00  1.00  0.00  0.00  0.00  0.00  0.00
  SALVWEL                 1.00   0.00  0.00  0.00  1.00  0.00  0.00  0.00  0.00  0.00
  SALVNOT                 1.00   0.00  0.00  0.00  1.00  0.00  0.00  0.00  0.34  0.00
  SMCPNOT                 1.00   0.00  0.05  0.00  0.95  0.00  0.00  0.00  0.37  0.00
  SMCPMCD                 1.00   0.04  0.00  0.00  0.96  0.00  0.00  0.00  0.16  0.00
  SLARWIL                 1.00   0.04  0.00  0.00  0.96  0.00  0.00  0.00  0.34  0.00
  SXANELG                 1.00   0.04  0.00  0.00  0.96  0.00  0.00  0.00  0.34  0.00
  SXANALE                 1.00   0.04  0.00  0.00  0.46  0.00  0.00  0.50  0.00  0.00
  SALEMAU                 1.00   0.04  0.00  0.00  0.96  0.00  0.00  0.00  0.37  0.00
  SMAULOG                 1.00   0.04  0.00  0.00  0.96  0.00  0.00  0.00  0.48  0.00
  SMCP85                  1.00   0.42  0.00  0.00  0.23  0.00  0.00  0.34  0.00  0.00
  SCANOUT1                1.00   0.00  0.00  0.00  1.00  0.00  0.00  0.00  0.00  0.00
  SCANWOL                 1.00   0.00  0.00  0.00  1.00  0.00  0.00  0.00  0.00  0.00
  XSCANPAL                1.00   0.00  0.00  0.00  1.00  0.00  0.00  0.00  0.00  0.00
  SCANWSM                 1.00   0.00  0.00  0.00  1.00  0.00  0.00  0.00  0.00  0.00
  SWSMHOM                 1.00   0.00  0.04  0.00  0.96  0.00  0.00  0.00  0.80  0.00
  SWSMARL                 1.00   0.04  0.22  0.00  0.72  0.02  0.00  0.00  0.80  0.00
  SCANPRE                 1.00   0.00  0.00  0.00  1.00  0.00  0.00  0.00  0.00  0.00
  SSIMPOR                 1.00   0.00  0.00  0.00  1.00  0.00  0.00  0.00  0.23  0.00
  SSIMSTM                 1.00   0.00  0.04  0.00  0.96  0.00  0.00  0.00  0.67  0.00
  SSTMARL                 1.00   0.04  0.00  0.00  0.45  0.00  0.00  0.51  0.17  0.00
  SSIMELC                 1.00   0.04  0.00  0.00  0.96  0.00  0.00  0.00  0.67  0.00
  SSIMSAR                 1.00   0.04  0.00  0.00  0.17  0.00  0.00  0.79  0.01  0.00
  SSIMWEL                 1.00   0.04  0.00  0.00  0.96  0.00  0.00  0.00  0.82  0.00
  SWELVIC                 1.00   0.04  0.00  0.00  0.86  0.00  0.00  0.10  0.49  0.00
  SWELMRY                 1.00   0.04  0.08  0.00  0.88  0.00  0.00  0.00  0.77  0.00
  SWELDOM                 1.00   0.04  0.00  0.00  0.26  0.01  0.00  0.69  0.14  0.00
  SWOLHOM                 1.00   0.00  0.04  0.00  0.96  0.00  0.00  0.00  0.78  0.00
  SDUM1                   1.00   0.04  0.00  0.00  0.96  0.00  0.00  0.00  0.63  0.00
  SDUM2                   1.00   0.04  0.00  0.00  0.96  0.00  0.00  0.00  0.64  0.00
  SDUM3                   1.00   0.04  0.00  0.00  0.96  0.00  0.00  0.00  0.85  0.00
  SMCP85A                 1.00   0.04  0.00  0.00  0.96  0.00  0.00  0.00  0.53  0.00
  SDUM4                   1.00   0.04  0.00  0.00  0.96  0.00  0.00  0.00  0.52  0.00
  SDUM5                   1.00   0.04  0.01  0.00  0.95  0.00  0.00  0.00  0.25  0.00
  
  
  *************************
  Conduit Surcharge Summary
  *************************
  
  ----------------------------------------------------------------------------
                                                           Hours        Hours 
                         --------- Hours Full --------   Above Full   Capacity
  Conduit                Both Ends  Upstream  Dnstream   Normal Flow   Limited
  ----------------------------------------------------------------------------
  CHEN90                      1.83      1.83      1.86      0.01         0.04
  CHIGMAU                     1.82      1.82      1.86      0.01         0.03
  CPORSHB                     2.74      2.74      4.08      0.47         0.47
  CPORDOM                     2.23      2.23      2.74      1.13         1.10
  CPORGRE                     1.92      1.92      2.23      0.20         0.20
  CPORSPR                     1.55      1.55      2.01      0.01         0.01
  CPORWLL                     1.38      1.38      1.55      0.04         0.04
  CPORBAN                     2.68      2.68      4.11      0.19         0.19
  CPORBUR                     2.36      2.36      2.68      0.38         0.38
  CSMTING                     2.35      2.35      3.14      0.30         0.29
  CSTMSHB                     2.10      2.10      2.20      0.43         0.42
  CELCING                     2.51      2.51      3.86      0.01         0.01
  CELCGRF                     2.28      2.28      2.72      0.13         0.13
  CWELSHB                     1.90      1.90      2.08      0.02         0.03
  CWELDOM                     1.75      1.75      1.97      0.12         0.11
  CNOTSHB                     2.59      2.59      3.03      0.34         0.32
  CNOTDOM                     2.28      2.28      2.59      0.15         0.15
  CPAC72                      1.92      1.92      2.06      0.10         0.09
  CPAC75                      1.39      1.39      1.92      0.01         0.01
  CLOGYEO                     2.96      2.97      2.97      1.73         1.65
  CLOGWNK                     2.95      2.96      2.97      1.65         1.56
  CAUBWOL                     0.91      1.07      0.91      2.09         0.91
  XCAUBPAL                    0.24      0.24      0.27      0.01         0.01
  CAUBWSM                     1.03      1.10      1.03      1.76         1.03
  CAUBPOR                     1.23      1.46      1.23      2.35         1.23
  CPORLIP                     1.58      1.59      1.58      1.66         1.58
  CLIP25                      1.58      1.64      1.59      1.99         1.56
  CLIPSMT                     1.64      1.69      1.64      2.02         1.64
  CLIP35                      1.69      1.72      1.69      1.52         1.25
  CLIPELC                     1.72      1.73      1.72      1.57         1.29
  CLIPSAR                     1.83      1.86      1.83      1.55         1.33
  CLIPWEL                     1.98      2.02      1.98      1.73         1.41
  CLIPYAR                     2.04      2.04      2.04      1.34         1.24
  CLIPNOT                     2.04      2.05      2.04      1.46         1.28
  CMCPWIN                     2.00      2.00      2.01      0.42         0.28
  CMCPBAN                     1.94      1.94      2.00      0.01         0.01
  CMCPELG                     1.90      1.90      1.94      0.01         0.06
  CMCPROS                     1.91      1.91      1.93      0.01         0.08
  CMCPPAC                     1.90      1.90      1.91      0.03         0.10
  CMCPLOG                     2.36      2.36      2.61      0.01         0.01
  CALEXAN                     1.89      1.89      1.98      0.01         0.01
  CLOG80                      1.86      1.86      1.89      0.12         0.12
  CLOGELE                     2.91      2.91      2.96      0.48         0.45
  CLOGVIN                     2.85      2.85      2.91      0.97         0.94
  CLOGQUE                     2.80      2.80      2.85      0.30         0.01
  CLOGCEC                     2.63      2.63      2.80      0.01         0.01
  CCECROY                     2.28      2.28      2.63      0.59         0.01
  CSARBUR                     2.33      2.33      3.15      0.03         0.03
  CSARARL                     2.00      2.00      2.52      0.07         0.07
  CCORMID                     0.46      0.55      0.46      0.89         0.46
  CMRYCOR                     0.54      0.56      0.55      0.59         0.48
  CMRYCSO                     0.01      2.12      0.01      3.43         0.01
  CMRYWSM                     0.34      0.58      0.34      1.06         0.34
  CWALPUR                     0.88      1.10      0.88      1.33         0.88
  CWSMWAL                     1.36      1.36      1.58      0.78         0.78
  CWSMCAN                     1.15      1.15      1.36      0.52         0.52
  CWSMETH                     1.01      1.01      1.15      0.05         0.06
  CWSMARL                     0.99      0.99      1.07      0.07         0.07
  CPREWAL                     1.05      1.05      1.10      0.06         0.08
  CCANPRE                     1.02      1.02      1.05      0.21         0.20
  CPORCAN                     0.98      0.98      1.02      0.13         0.13
  CSIMPOR                     1.12      1.12      1.14      0.04         0.05
  CPORHOM                     1.26      1.26      1.99      0.16         0.17
  CSIMSTM                     1.97      2.05      1.99      1.73         1.58
  CSIMELC                     1.86      1.86      2.05      0.01         0.01
  CSIMSAR                     1.93      1.94      1.96      1.16         0.56
  CSIMWEL                     1.33      1.33      1.92      0.01         0.01
  CAUBSPS                     0.01      0.01      0.01      1.52         0.01
  SSHBPAL                     0.01      0.78      0.01      1.15         0.01
  SSHBWSM                     0.77      0.77      0.86      0.58         0.58
  SPORSHB                     0.70      0.70      0.77      0.49         0.50
  SPORDOM                     0.50      0.50      0.80      0.01         0.01
  SPORGRE                     0.35      0.35      0.49      0.01         0.01
  SPORSPR                     0.16      0.16      0.35      0.01         0.01
  SPORWLL                     0.03      0.03      0.16      0.01         0.01
  SSHBWLV                     0.72      0.72      0.79      0.34         0.36
  SSHBSTM                     0.61      0.61      0.72      0.01         0.01
  SSTMDOM                     0.44      0.44      0.80      0.01         0.01
  SELCDOM                     0.01      0.01      0.45      0.01         0.01
  SSHB33                      0.67      0.67      0.68      0.26         0.29
  SSHBELC                     0.67      0.68      0.68      0.73         0.57
  SSHBSAR                     0.65      0.65      0.67      0.35         0.37
  SSHBWEL                     0.64      0.65      0.66      0.63         0.50
  SSHB54                      0.62      0.62      0.63      0.54         0.51
  SSHBNOT                     0.59      0.59      0.62      0.01         0.04
  SRS-XCON1                   1.03      1.03      1.27      0.01         0.03
  SRS-XCON2                   1.22      1.22      1.47      0.14         0.14
  SNOTMYR                     0.71      0.75      0.77      0.25         0.12
  SMYRWIN                     0.69      0.69      0.75      0.01         0.01
  SNOTWLL                     0.61      0.66      0.85      0.26         0.20
  SRUB02                      0.01      0.48      0.01      1.21         0.01
  SRUBWOL                     0.50      0.61      0.50      1.07         0.50
  SLENWSM                     0.61      0.61      0.61      0.61         0.58
  SBURPOR                     0.61      0.64      0.61      0.77         0.61
  SBUREIN                     0.63      0.63      0.64      0.57         0.56
  SBUR28                      0.62      0.62      0.63      0.45         0.45
  SBURSMT                     0.62      0.64      0.62      0.81         0.62
  SBURELC                     0.63      0.63      0.64      0.58         0.53
  SALVSAR                     0.63      0.63      0.63      0.76         0.63
  SALVWEL                     0.60      0.60      0.62      0.54         0.43
  SALVNOT                     0.60      0.60      0.62      0.54         0.47
  SMCPNOT                     0.59      0.60      0.60      0.55         0.42
  SMCPMCD                     0.59      0.59      0.60      0.20         0.04
  SLARWIL                     0.76      0.83      0.76      1.01         0.76
  SXANELG                     0.82      0.83      0.83      0.57         0.49
  SXANALE                     0.83      0.83      0.83      0.95         0.83
  SALEMAU                     0.81      0.81      0.83      0.01         0.04
  SMAULOG                     0.79      0.79      0.81      0.01         0.01
  SMCP85                      0.75      0.75      0.79      0.01         0.02
  SCANOUT1                    0.01      0.57      0.01      1.12         0.01
  SCANWOL                     0.82      0.82      0.84      0.74         0.70
  XSCANPAL                    0.01      0.01      0.01      0.86         0.01
  SCANWSM                     0.84      0.86      0.84      0.91         0.78
  SWSMHOM                     0.50      0.50      0.89      0.01         0.01
  SWSMARL                     0.37      0.37      0.50      0.01         0.01
  SCANPRE                     0.83      0.83      0.84      0.70         0.68
  SSIMPOR                     0.79      0.79      0.91      0.38         0.38
  SSIMSTM                     0.73      0.73      0.79      0.55         0.54
  SSTMARL                     0.77      0.77      0.85      0.01         0.01
  SSIMELC                     0.74      0.74      0.78      0.03         0.01
  SSIMSAR                     0.70      0.70      0.74      0.02         0.01
  SSIMWEL                     0.60      0.60      0.70      0.01         0.01
  SWELVIC                     0.51      0.51      0.60      0.01         0.01
  SWELMRY                     0.45      0.45      0.51      0.01         0.01
  SWELDOM                     0.45      0.45      0.81      0.01         0.01
  SWOLHOM                     0.50      0.50      1.37      0.01         0.01
  SDUM1                       0.61      0.61      0.66      0.13         0.08
  SDUM2                       0.66      0.68      0.71      0.25         0.19
  SDUM3                       0.35      0.35      0.68      0.01         0.01
  SMCP85A                     0.62      0.66      0.66      0.22         0.13
  SDUM4                       0.66      0.66      0.69      0.12         0.08
  SDUM5                       0.69      0.69      0.70      0.37         0.36
  
  
  ***************
  Pumping Summary
  ***************
  
  ---------------------------------------------------------------------------------------------------------
                                                  Min       Avg       Max     Total     Power    % Time Off
                        Percent   Number of      Flow      Flow      Flow    Volume     Usage    Pump Curve
  Pump                 Utilized   Start-Ups       CMS       CMS       CMS  10^6 ltr     Kw-hr    Low   High
  ---------------------------------------------------------------------------------------------------------
  PUMP1@SCANPAL-SCANOUT1    92.50           4      0.00      1.55      8.22    30.943     26.63    0.0    0.0
  PUMP2@SRUBPAL-I-SRUB02    95.66           1      0.00      2.50     10.42    51.634     20.54    0.0    0.0
  PUMP3@CAUBPAL-I-CAUBSPS   100.00           1      0.00      3.06      8.00    66.070    213.10   18.4   12.2
  PUMP4@CCORDIV-CCOROUT1    95.32           1      0.00      0.75      3.41    15.393     12.56    0.0    0.0
  PUMP5@CMRYCOR-I-CMRYCSO    95.73           1      0.00      0.31      1.35     6.335      6.69    0.0    0.0
  

  Analysis begun on:  Tue Feb 06 10:57:19 2018
  Analysis ended on:  Tue Feb 06 10:57:29 2018
  Total elapsed time: 00:00:10